         658
 CSIRO Nanostructure Databank - Neutral Graphene Oxide Data Set
C          5.88688        31.75424         0.00379
C          5.87257        33.08390        -0.23565
C          8.41452        27.50740         0.40686
C          8.35790        28.88065         0.45729
C          7.15155        29.61980         0.18052
C          8.36543        31.76736         0.20815
C          7.12412        30.99943         0.13546
C          8.36189        33.15046        -0.03762
C          7.13343        33.83825        -0.56816
C          8.29112        36.03696        -0.06934
C          7.10999        35.31169        -0.27124
C          8.29762        37.47178        -0.06132
C         10.85795        23.21493         0.48569
C         10.86162        24.61051         0.54997
C          9.63022        25.36882         0.56973
C         10.84698        27.44610         1.09436
C          9.60352        26.74121         0.69862
C         10.83906        28.95017         1.11881
C          9.49597        29.68330         1.04474
C         10.80086        31.78178         0.39167
C          9.58123        31.08383         0.46892
C         10.77944        33.18432         0.32642
C          9.55885        33.90530         0.14611
C         10.72251        36.14793         0.58708
C          9.53509        35.33051         0.11587
C         10.75457        37.54157         0.00589
C          9.50161        38.22982        -0.09982
C         10.72142        40.35839        -0.39420
C          9.50689        39.63976        -0.26043
C         10.76307        41.78458        -0.47559
C         13.48119        18.92855         0.83829
C         13.39005        20.38043         0.50123
C         12.10790        21.09690         0.54754
C         13.29325        23.20220         0.05258
C         12.07387        22.47880         0.34245
C         13.28669        24.60785         0.11724
C         12.11409        25.30400         0.44943
C         13.40364        27.50757         0.56441
C         12.16736        26.72633         0.83355
C         13.38645        28.88496         0.60178
C         12.12939        29.65282         0.83812
C         13.34401        31.82988         0.55573
C         12.09716        31.01122         0.16863
C         13.26125        33.19629        -0.15261
C         12.05537        33.92246         0.41977
C         13.27618        36.11579         0.05634
C         12.04830        35.40874         0.47963
C         13.24101        37.48995        -0.20033
C         11.96570        38.21646        -0.23403
C         13.17335        40.35258        -0.77727
C         11.94251        39.61439        -0.47391
C         13.18746        41.81082        -0.71932
C         11.97505        42.52454        -0.58708
C         13.15446        44.72174        -0.60046
C         11.98224        43.97232        -0.54901
C         13.20592        46.14779        -0.49044
C         16.00593        14.67169         0.72463
C         15.93049        16.02922         0.37411
C         14.72149        16.78843         0.59121
C         15.77056        18.85749        -0.19422
C         14.65092        18.14502         0.36432
C         15.77256        20.24829        -0.36448
C         14.44659        20.98696        -0.41025
C         15.73030        23.14757        -0.25950
C         14.53291        22.48680        -0.20158
C         15.82223        24.62594         0.05956
C         14.52150        25.35676        -0.32592
C         15.77011        27.46313        -0.13436
C         14.59361        26.80208         0.12394
C         15.92123        28.89923         0.11888
C         14.64145        29.65549         0.48268
C         15.77694        31.79089        -0.10744
C         14.62796        31.10476         0.21885
C         15.75373        33.25989        -0.13862
C         14.54759        33.95926         0.00979
C         15.72738        36.09064        -0.15646
C         14.50324        35.37997        -0.02019
C         15.68799        37.51301        -0.20917
C         14.47893        38.18682        -0.33838
C         15.75211        40.39526        -0.45311
C         14.50971        39.61956        -0.69802
C         15.74899        41.79657        -0.53560
C         14.47571        42.50255        -0.85907
C         15.65305        44.68448        -0.26524
C         14.43933        44.00182        -0.80369
C         15.69986        46.15559        -0.46052
C         14.40597        46.88874        -0.45966
C         15.68811        49.00851        -0.24564
C         14.47555        48.29824        -0.48194
C         15.82751        50.38445        -0.41860
C         18.57908        10.56551         1.54053
C         18.43500        11.81825         0.88030
C         17.27490        12.57517         0.97905
C         18.35094        14.61134         0.03149
C         17.19894        13.94094         0.53675
C         18.31099        15.98972        -0.28221
C         17.07959        16.67827        -0.15423
C         18.23930        18.83091        -0.92556
C         16.95016        18.07474        -0.58376
C         18.22618        20.29177        -0.75502
C         16.99918        20.95276        -0.56193
C         18.28007        23.18805        -0.61294
C         17.00917        22.41667        -0.34085
C         18.21228        24.65111        -0.89827
C         16.99624        25.30551        -0.62015
C         18.07253        27.53464        -1.29054
C         16.88364        26.75716        -0.81396
C         18.18609        28.98092        -0.96017
C         17.04834        29.65940        -0.46041
C         18.18125        31.78569        -0.81311
C         17.02383        31.08374        -0.42729
C         18.14742        33.25493        -0.87511
C         16.95698        33.98543        -0.36683
C         18.17446        36.15986        -0.76868
C         16.94449        35.38071        -0.36000
C         18.23777        37.52806        -0.13043
C         16.94250        38.26219        -0.02419
C         18.19500        40.39954        -0.21189
C         16.95880        39.71563        -0.19039
C         18.18995        41.81985        -0.20210
C         16.95855        42.49646        -0.29190
C         18.19585        44.68140         0.19271
C         16.92288        43.94704        -0.02019
C         18.17935        46.06630         0.35708
C         16.97293        46.83071        -0.05934
C         18.11289        48.97464         0.69558
C         16.84003        48.25672         0.32087
C         18.16318        50.39845         0.37242
C         17.06725        51.06537        -0.17199
C         18.42385        53.09505        -0.60042
C         17.20872        52.46006        -0.57322
C         18.60671        54.42378        -1.13744
C         21.23466         6.76419         3.21096
C         21.12611         7.98007         2.49533
C         19.90644         8.66279         2.36519
C         20.99800        10.43493         1.03094
C         19.80038         9.87418         1.63016
C         20.87535        11.63249         0.18438
C         19.56927        12.35283         0.09137
C         20.85587        14.55992        -0.44676
C         19.56804        13.83464        -0.26723
C         20.80188        16.01315        -0.64180
C         19.54211        16.69919        -0.63537
C         20.71056        18.84506        -0.98737
C         19.51451        18.09763        -0.82990
C         20.67519        20.27469        -1.14647
C         19.45892        21.00009        -0.93025
C         20.61764        23.10968        -1.42452
C         19.46987        22.42435        -1.03887
C         20.56088        24.55087        -1.86911
C         19.34762        25.31817        -1.38314
C         20.60687        27.51682        -1.42096
C         19.31937        26.79213        -1.76257
C         20.64532        28.91062        -1.32096
C         19.40530        29.66299        -1.14254
C         20.63774        31.80582        -1.22497
C         19.43036        31.10478        -1.05598
C         20.71000        33.29076        -1.46356
C         19.40800        34.01468        -1.12856
C         20.70108        36.18628        -0.68489
C         19.45210        35.37374        -0.44513
C         20.70380        37.55129        -0.54156
C         19.47393        38.30310        -0.33886
C         20.68665        40.46866        -0.63446
C         19.44564        39.67576        -0.30241
C         20.66593        41.85103         0.00285
C         19.44190        42.53896         0.03582
C         20.60008        44.61635         0.73606
C         19.40894        43.94131         0.32225
C         20.54002        46.01297         1.03508
C         19.36197        46.76771         0.78253
C         20.56807        48.93435         1.09934
C         19.36742        48.20626         0.86925
C         20.63582        50.31778         0.94110
C         19.40118        51.16815         0.74206
C         20.75598        53.19468         0.37963
C         19.67290        52.31950        -0.22913
C         20.82774        54.62924        -0.05957
C         19.78149        55.13140        -0.97478
C         21.20645        57.09634        -1.38566
C         20.02168        56.42379        -1.55867
C         21.32769        58.52883        -1.85413
C         23.94071         4.36544         4.28867
C         22.63629         4.94338         4.11561
C         23.64409         6.49675         2.47493
C         22.45825         6.06901         3.31615
C         23.51075         7.86794         1.89763
C         22.32599         8.54904         1.88132
C         23.48080        10.55652         0.93478
C         22.24150         9.84157         1.21365
C         23.36328        11.93033         0.57527
C         22.14494        12.43839        -0.07241
C         23.35245        14.57302        -0.78611
C         22.05500        13.89462        -0.38138
C         23.29637        16.08692        -0.71738
C         21.99902        16.74981        -0.78048
C         23.16141        18.91928        -1.14105
C         21.96143        18.17096        -0.94270
C         23.10261        20.25764        -1.53498
C         21.87055        20.97297        -1.45560
C         23.04981        23.15224        -1.66155
C         21.85616        22.41348        -1.57536
C         23.06317        24.58890        -1.55072
C         21.86098        25.28792        -1.60078
C         23.16026        27.50508        -1.51333
C         21.84858        26.76250        -1.65204
C         23.12299        28.93335        -1.12543
C         21.89882        29.61578        -1.22306
C         23.09115        31.80941        -0.71148
C         21.94733        31.10719        -1.43250
C         23.06225        33.20686        -0.53456
C         21.92183        33.96055        -0.85413
C         23.17382        36.13235        -0.37893
C         21.98624        35.46190        -1.01935
C         23.18160        37.53141        -0.31519
C         21.95883        38.30570        -0.47692
C         23.23057        40.46488        -0.42308
C         21.94815        39.67799        -0.39632
C         23.14894        41.79787         0.33612
C         21.86738        42.50021         0.42226
C         22.97655        44.43323         1.54522
C         21.80612        43.84667         0.86264
C         22.96487        45.90572         1.88768
C         21.70300        46.69164         1.66241
C         23.06245        48.74483         0.97584
C         21.77608        48.23280         1.70357
C         23.19262        50.26330         1.13235
C         21.91367        51.05302         1.09103
C         23.20658        53.16264         0.83602
C         22.01487        52.49139         0.73784
C         23.14583        54.69367         0.94773
C         22.13266        55.30355         0.00148
C         23.62480        57.16914        -0.61654
C         22.31425        56.50668        -0.63643
C         23.81830        58.36965        -1.38822
C         22.74188        58.99409        -2.06820
C         24.26448        60.67381        -2.97123
C         22.97191        60.12018        -2.85481
C         25.06912         5.00952         3.88090
C         26.12889         6.82710         2.43703
C         24.95696         6.39605         3.28870
C         26.00637         7.74622         1.46392
C         24.67006         8.34250         1.06166
C         25.98711        10.44943         0.72889
C         24.72756         9.85679         1.01975
C         26.16662        11.83912         0.75942
C         24.40215        12.88608         0.73891
C         25.83898        14.74718        -0.00825
C         24.52748        14.04660         0.00662
C         25.78390        16.18645        -0.38422
C         24.45397        16.80518        -0.64944
C         25.58932        18.68891        -1.77626
C         24.49177        18.30348        -0.76940
C         25.63409        20.21805        -1.94046
C         24.34274        20.97353        -1.95670
C         25.45125        23.04355        -1.00695
C         24.37678        22.50509        -1.94577
C         25.45470        24.52353        -0.91851
C         24.33972        25.25091        -1.26116
C         25.50178        27.42466        -0.53259
C         24.48091        26.75516        -1.42733
C         25.48604        28.83776        -0.40219
C         24.32041        29.58534        -0.72586
C         25.41231        31.64948         0.29178
C         24.42235        31.10224        -0.75874
C         25.53664        33.15150         0.15239
C         24.21925        33.90371         0.18658
C         25.56717        36.04160         0.06646
C         24.34171        35.38039        -0.12198
C         25.61164        37.45390         0.15194
C         24.39993        38.22246        -0.00935
C         25.69272        40.30730         0.15011
C         24.41994        39.62183        -0.01534
C         25.63773        41.78740         0.50233
C         24.31608        42.40365         0.74793
C         25.56969        44.38823         1.82958
C         24.27751        43.65782         1.53512
C         25.56379        45.88903         2.03049
C         24.28046        46.66582         1.95232
C         25.64772        48.68319         0.94122
C         24.34217        48.08901         1.48368
C         25.71557        50.20354         1.14086
C         24.47755        50.96113         0.67210
C         25.64165        53.08544         1.29123
C         24.46449        52.44174         1.03565
C         25.74402        54.57054         1.26254
C         24.52053        55.36765         0.88472
C         26.02621        57.15650        -0.05712
C         24.69581        56.59331         0.06493
C         26.19979        58.35704        -0.79898
C         25.12626        58.95315        -1.48047
C         25.32190        60.11821        -2.28161
C         27.18707         8.19521         0.62785
C         28.36883        10.35829         0.10200
C         27.20741         9.69766         0.43272
C         28.42313        11.79078        -0.14829
C         27.08474        12.48887        -0.22784
C         28.25615        14.65285        -0.62741
C         27.11445        13.99830        -0.21895
C         28.25228        16.07411        -0.95356
C         27.00667        16.83207        -0.92026
C         28.12811        18.82320        -1.96520
C         26.92886        18.09999        -1.41675
C         28.08821        20.27922        -1.53583
C         26.88171        20.93376        -1.55311
C         28.00562        22.99898        -0.61710
C         26.75973        22.27783        -0.93393
C         27.92499        24.40424        -0.17159
C         26.57865        25.15940        -0.13609
C         27.88805        27.32764        -0.10765
C         26.69182        26.66581        -0.31307
C         27.90033        28.74201         0.28045
C         26.68081        29.53823         0.06111
C         27.98177        31.62085         0.41318
C         26.72921        30.91054         0.22949
C         27.99088        33.04343         0.43436
C         26.74538        33.78335         0.22427
C         28.03528        35.93489         0.55914
C         26.85346        35.26238        -0.09627
C         28.00671        37.33619         0.76501
C         26.84866        38.12210         0.48135
C         28.06426        40.27637         0.85579
C         26.89048        39.54473         0.52972
C         28.09369        41.67576         0.94051
C         26.86994        42.42073         1.01341
C         28.08790        44.55929         1.32373
C         26.84226        43.71786         1.49305
C         28.08866        45.86526         2.16835
C         26.83180        46.65447         1.84886
C         28.17071        48.67959         1.17848
C         26.86944        47.94306         1.43628
C         28.14606        50.10375         1.72973
C         26.85365        50.84706         1.49021
C         28.09362        52.86869         0.73711
C         26.94168        52.36330         1.61428
C         28.08622        54.18208         0.35010
C         27.14895        55.13825         1.04851
C         27.15584        56.49719         0.42990
C         29.56086        12.49809        -0.41385
C         30.67319        14.55476        -1.13130
C         29.53027        13.91952        -0.73750
C         30.67161        15.94490        -1.69947
C         29.40624        16.70370        -1.40559
C         30.59015        18.84911        -1.47011
C         29.41394        18.12255        -1.61408
C         30.52785        20.26835        -1.22774
C         29.31250        20.95789        -1.15866
C         30.46892        23.13457        -0.71923
C         29.24176        22.36920        -0.78051
C         30.46410        24.51850        -0.64999
C         29.22162        25.19497        -0.24951
C         30.43396        27.39380        -0.28854
C         29.14788        26.66717        -0.57067
C         30.47476        28.73338         0.07533
C         29.23065        29.44732         0.47437
C         30.45205        31.60759         0.60691
C         29.22520        30.92568         0.45979
C         30.44491        32.99833         0.83706
C         29.21157        33.73512         0.70086
C         30.35806        35.84031         1.41592
C         29.18098        35.17206         0.83370
C         30.47433        37.31138         1.36633
C         29.18852        38.02176         1.32054
C         30.55451        40.16933         1.42448
C         29.23840        39.51586         1.33757
C         30.50200        41.61277         1.81828
C         29.42871        42.39079         1.02811
C         30.57269        44.42172         2.16007
C         29.34428        43.78391         1.55747
C         30.64673        45.89880         1.81964
C         29.36445        46.63813         1.86001
C         30.67234        48.76361         1.64184
C         29.34007        48.12922         2.00173
C         30.61245        50.10017         1.23220
C         29.37397        50.80588         1.17049
C         29.27591        52.06625         0.61010
C         31.90953        16.76124        -1.43149
C         33.09027        18.90937        -1.39753
C         31.87823        18.14254        -1.39878
C         33.08178        20.30326        -1.26286
C         31.79748        20.94805        -0.89797
C         32.98252        23.21527        -1.04896
C         31.77036        22.44705        -0.73265
C         32.91868        24.62508        -1.12823
C         31.66018        25.30589        -0.85383
C         32.79252        27.52804        -1.00420
C         31.62441        26.69700        -0.67971
C         32.86241        28.90090        -0.47920
C         31.70848        29.47390         0.05672
C         33.08296        31.58987         0.65308
C         31.72782        30.78570         0.81738
C         32.90000        33.09445         0.58844
C         31.72700        33.68762         1.02480
C         32.82237        35.89468         1.83343
C         31.62568        35.06217         1.59850
C         32.92603        37.23250         1.56030
C         31.68498        37.98274         1.38289
C         32.99755        40.16524         1.45811
C         31.73059        39.45038         1.41312
C         33.03933        41.55413         1.57032
C         31.82980        42.32033         1.73034
C         33.10263        44.43026         1.80631
C         31.85419        43.69251         1.82825
C         33.10914        45.86169         1.89781
C         31.93571        46.62650         1.90568
C         31.88241        48.03410         1.74878
C         34.24013        21.09746        -1.34289
C         35.38682        23.29094        -1.48268
C         34.20826        22.52306        -1.26984
C         35.35040        24.68268        -1.50920
C         34.11404        25.35817        -1.36263
C         35.32987        27.59591        -1.37280
C         34.07389        26.82567        -1.43149
C         35.28019        28.99666        -1.15500
C         34.08275        29.65420        -0.66148
C         35.28009        31.78912        -0.61605
C         34.10789        31.01546        -0.32359
C         35.30775        33.18883        -0.39764
C         34.09273        33.91239         0.12941
C         35.55989        35.82836         0.69510
C         34.62548        34.94460         1.08368
C         35.57912        37.20221         1.28709
C         34.23215        37.91601         1.26479
C         35.54464        40.15589         1.21999
C         34.24630        39.42087         1.18421
C         35.50368        41.57647         1.36663
C         34.30278        42.27983         1.53104
C         34.29149        43.69883         1.66117
C         36.63031        25.43709        -1.80909
C         37.71515        27.69206        -1.81451
C         36.55119        26.94100        -1.64368
C         37.69419        29.10058        -1.69687
C         36.47752        29.75022        -1.31880
C         37.64550        31.92473        -1.32984
C         36.46368        31.16008        -1.11385
C         37.64378        33.32481        -1.09831
C         36.45882        33.95632        -0.65048
C         37.80825        36.10571        -0.29462
C         36.43738        35.47758        -0.48261
C         37.93821        37.31249         0.34181
C         36.80570        38.00612         1.00715
C         36.73130        39.47878         1.02499
C         38.86417        29.88284        -1.92249
C         40.03640        32.06051        -1.97688
C         38.85167        31.26321        -1.75866
C         40.04467        33.40131        -1.73367
C         38.87091        34.08979        -1.25072
C         38.94107        35.41428        -0.84682
O         28.71557        24.73193         1.01780
O         31.87866        21.54273         0.43963
O         13.08819        33.04648        -1.54259
O         25.06955        55.40408         2.25319
O         34.10032        38.59362        -0.03882
O         24.31429        47.78789         2.89729
O         28.33890        49.89253         3.17596
O         25.73966        22.27755         0.17073
O         28.96765        48.55091         3.34551
O         25.99239        25.03734         1.14218
O         33.15636        27.38574        -2.43556
O         30.68544        35.19886         2.71802
O         19.27167        12.78329        -1.26248
O         11.59483        26.87284         2.19228
O         25.93614        15.79783         1.04035
O         28.51396        28.90152         1.62357
O         20.28917        54.22447         1.26872
O         16.96659        27.24958        -2.24781
O         31.67590        30.24308         2.12084
O         33.93262        35.17524         2.27216
O         18.48040        33.84778        -2.24633
O         15.63611        29.28295         1.50565
O         25.88525        41.36802        -0.89929
O         14.59305        43.34884        -2.08822
O         17.35705        18.32559        -1.97618
O         15.96084        44.26064         1.09769
O         17.09684        48.55214         1.71649
O         12.29476        34.59490         1.69829
O         16.64635        46.60666        -1.48259
O         17.65497        37.72477         1.18417
O         25.57396        44.97830         3.18244
O         27.30428        52.74078         2.93189
O         21.58640        11.53671        -1.08569
O         22.57505        27.30855        -2.84231
O         11.64194        29.54388         2.20829
O         24.97074        20.53209        -3.22699
O         22.66221        50.77962         2.35428
O         22.04669        46.14261         2.98852
O         36.47924        37.44170         2.39276
O         13.89956        39.86471        -1.99241
O         29.96354        46.29096         0.55460
O         25.44338        12.59490         1.66423
O         17.90992        22.83557         0.77271
O         28.89722        38.77012         2.58243
O         23.39319        43.59862         2.68660
O         20.20185        51.72611        -1.44275
H         20.12086        52.37751        -2.17025
O         27.08049         7.57083        -0.67376
H         27.72953         7.99642        -1.27188
O         25.11220        26.92988        -2.74113
H         24.38218        26.87319        -3.40345
O         23.43015        40.83891        -1.83900
H         24.36128        41.17871        -1.89923
O         20.85875        33.44466        -2.94709
H         19.93478        33.37650        -3.29980
O         29.91458        42.48510        -0.35364
H         29.25413        43.02035        -0.84817
O         28.12485        45.55323         3.56127
H         27.22077        45.26624         3.84029
O         23.56599        14.24457        -2.19478
H         23.29716        13.31087        -2.33413
O         20.63887        40.72025        -2.07922
H         21.56882        40.87991        -2.37158
O         14.42792        25.36256        -1.78021
H         15.11104        25.97035        -2.13996
O         27.75034        55.29411         2.36390
H         27.64743        54.39178         2.81824
O         24.38142         7.84824        -0.29192
H         25.24656         7.77544        -0.76815
O         18.10978        36.44920        -2.18214
H         18.00438        35.58838        -2.65424
O         24.76450        23.00610        -3.25439
H         24.91573        22.22636        -3.83963
O         19.43927        35.06065         0.97611
H         19.26772        35.88788         1.47701
O         12.15131        30.69976        -1.23782
H         12.44642        31.55008        -1.69910
O         15.99305        24.74514         1.49446
H         16.76177        24.17441         1.73406
O         13.32950        32.05984         1.97409
H         13.42533        31.20166         2.43976
O         20.45121        24.45620        -3.33415
H         20.22235        25.36882        -3.65275
O         21.74921        48.62395         3.07297
H         22.37941        48.05016         3.56922
O         24.81468        31.34529         1.59387
H         25.53273        31.31440         2.26204
O         19.14732        51.76646         2.04075
H         19.07359        51.05154         2.70773
O         13.92031        20.77288        -1.75631
H         14.55099        21.15825        -2.40017
O          9.08425        29.90975         2.42838
H          9.90716        30.09294         2.93886
O         22.22413        35.69874        -2.45588
H         21.68147        35.04067        -2.95913
O         25.63963        48.45393        -0.51562
H         26.58668        48.53173        -0.80486
O         22.60455        54.95385         2.26576
H         23.36876        54.94264         2.89006
O         28.42722        48.65866        -0.24163
H         28.99294        47.87468        -0.42984
O         27.98353        44.88995        -0.11711
H         28.82670        45.34511        -0.36657
O         24.49792        50.93797        -0.78841
H         24.95668        50.11033        -1.06948
O         30.67916        15.74895        -3.17106
H         30.51515        16.62778        -3.57778
O         24.89789         7.32423         4.40777
H         24.20251         7.00364         5.02057
O         30.08341        41.61909         3.22389
H         29.62587        40.77118         3.42242
O         30.45869        44.36118         3.61468
H         30.29324        43.41685         3.85379
O         29.03540        26.67719        -2.04412
H         29.07486        27.60549        -2.35769
O         10.44738        36.35145         2.01188
H         10.93450        35.63135         2.48456
O         24.98871        31.39434        -2.06874
H         24.25477        31.26579        -2.72233
O         13.85440        19.93192         1.82745
O         28.02268        18.76922        -3.42960
H         27.10792        18.46795        -3.65107
O         33.79021        31.46549         1.91845
H         33.16023        30.93095         2.49476
O         23.81699        33.88683         1.59756
H         23.89838        32.94773         1.90130
O         35.89197        36.04972        -1.69879
H         34.93573        35.80163        -1.72306
O         37.04704        25.12987        -3.15476
H         36.36465        25.47234        -3.76826
O          7.23647        33.77863        -2.05102
H          8.10722        34.15713        -2.29962
O         22.87510        48.38860        -0.40802
H         23.70817        48.57497        -0.89768
O         25.26641        18.08228        -3.05165
H         24.77167        18.76015        -3.57550
O         20.56289        58.79085        -3.02794
H         19.61228        58.72438        -2.80991
O         23.73996         5.57129         1.35470
H         23.86016         6.10445         0.53267
O         19.28955        26.85251        -3.23694
H         18.33306        26.87019        -3.48431
O         26.51563        12.11871        -1.54119
H         27.13798        12.43517        -2.23110
O         24.89948        18.87713         0.49729
H         24.44705        18.40338         1.22548
O         22.33869        31.22239        -2.86626
H         21.93270        32.06806        -3.19779
O         27.13114        35.29900        -1.54261
H         27.07265        36.23312        -1.83559
O         33.55247        34.71345        -0.99940
H         33.27928        34.08450        -1.70177
H          4.93945        31.21188         0.14638
H          4.91611        33.62301        -0.30965
H          7.52374        26.94804         0.07984
H          6.22151        29.05444         0.01273
H          6.16890        35.85783        -0.44085
H          7.33634        37.99865        -0.15469
H          9.91199        22.66510         0.59788
H          8.69388        24.82962         0.35992
H          8.55229        40.18540        -0.27125
H          9.81420        42.33788        -0.41311
H         12.55963        18.36206         1.09423
H         11.20472        20.56917         0.88919
H         11.01868        44.48816        -0.42198
H         12.25241        46.69579        -0.44000
H         15.12340        14.16829         1.14511
H         13.85707        16.26925         1.03203
H         13.55669        48.87743        -0.66008
H         14.98538        50.96322        -0.82635
H         17.70266        10.15413         2.06362
H         16.40735        12.15771         1.51174
H         16.30658        52.99360        -0.90935
H         17.77847        54.87696        -1.70427
H         20.34813         6.37311         3.73454
H         19.00053         8.24064         2.82546
H         19.21007        56.88454        -2.14271
H         20.90712        59.16674        -1.00963
H         24.01774         3.40257         4.81535
H         21.78196         4.50565         4.65325
H         24.41893        61.56243        -3.59876
H         22.12843        60.58061        -3.38710
H         26.06357         4.59361         4.10272
H         27.12175         6.40660         2.67108
H         27.20789        58.78835        -0.88861
H         26.32771        60.55693        -2.34698
H         28.15071         7.86226         1.10898
H         29.30720         9.78758         0.01601
H         28.94517        54.59370        -0.20630
H         28.13355        56.99607         0.34019
H         30.53489        11.98525        -0.44564
H         31.61465        13.98573        -1.18587
H         31.53244        50.61514         0.91475
H         30.18028        52.54006         0.19419
H         32.88136        16.24401        -1.45185
H         34.04833        18.38144        -1.51978
H         34.08263        46.37572         1.89780
H         32.82935        48.58443         1.63185
H         35.20471        20.60783        -1.54598
H         36.34054        22.77181        -1.65587
H         36.45333        42.13252         1.34789
H         35.25268        44.23471         1.63680
H         37.44290        25.04764        -1.14009
H         38.65578        27.18308        -2.06980
H         38.93173        37.78747         0.39763
H         37.67070        40.04782         0.94395
H         39.79313        29.37725        -2.22564
H         40.94819        31.55471        -2.32703
H         40.96526        33.98483        -1.88215
H         39.91219        35.93324        -0.87403
