         429
 CSIRO Nanostructure Databank - Neutral Graphene Oxide Data Set
C          1.58330         1.76243        -0.86641
C          1.56320         3.15081        -0.99806
C          2.62286         1.14204        -0.17080
C          2.56654         3.94322        -0.41743
C          1.29572         6.15468        -0.69816
C          1.30441         7.52693        -0.88480
C          2.60712         5.42570        -0.72235
C          2.48844         8.27600        -0.78479
C          1.54519        10.31297        -1.98690
C          1.70355        11.56037        -2.48501
C          2.51147         9.77435        -0.96246
C          2.87086        12.36837        -2.17555
C          1.81174        14.47350        -3.10053
C          1.82927        15.84381        -3.28470
C          2.90567        13.79637        -2.48805
C          2.94667        16.62516        -2.89280
C          2.96149        18.05423        -3.02322
C          3.63634         1.91496         0.40728
C          3.61640         3.31784         0.28373
C          4.75891         1.26400         1.17656
C          4.69373         4.10908         1.00260
C          3.67541         6.18392         0.02809
C          3.61354         7.69367         0.02572
C          4.75430         5.55600         0.57363
C          4.96951         8.32006        -0.22218
C          3.90536        10.32934        -1.20146
C          3.98809        11.71672        -1.62468
C          5.04282         9.62807        -0.83627
C          5.22520        12.43301        -1.41394
C          4.02921        14.56253        -2.12284
C          4.07393        15.96667        -2.32939
C          5.14849        13.93690        -1.33434
C          5.23471        16.74806        -1.96317
C          4.03937        18.79636        -2.61749
C          5.22163        18.16756        -2.09222
C          6.06711         1.99744         0.98646
C          6.03760         3.41351         0.92648
C          7.27690         1.31746         0.95935
C          7.23843         4.14760         0.89285
C          6.00761         6.28062         0.71933
C          6.07140         7.66813         0.29167
C          7.21035         5.59154         0.85021
C          7.46226         8.19902         0.14300
C          6.36645        10.29142        -0.94057
C          6.38415        11.76907        -1.04830
C          7.57322         9.60766        -0.35923
C          7.61395        12.47677        -0.76346
C          6.46450        14.62471        -1.60385
C          6.43385        16.11161        -1.55015
C          7.71492        13.88160        -1.21585
C          7.57233        16.85870        -1.23843
C          6.37161        18.91436        -1.74990
C          7.55632        18.28895        -1.31187
C          8.51214         2.02619         0.89065
C          8.49118         3.45921         0.85987
C          9.74699         1.34410         0.82285
C          9.72584         4.17606         0.86034
C          8.46655         6.38077         0.58437
C          8.48277         7.76847         1.16984
C          9.80370         5.65321         0.52544
C          9.62750         8.46208         1.41059
C          8.53354        10.49326         0.37719
C          8.65881        11.89340        -0.04942
C          9.57950         9.94230         1.29764
C          9.72370        12.68326         0.53705
C          8.72600        14.70536        -0.54987
C          8.81919        16.16206        -0.84959
C          9.42629        14.09266         0.44994
C          9.99977        16.99642        -0.43496
C          8.73992        19.05501        -0.99770
C          9.93013        18.47418        -0.56731
C         10.96227         2.05806         0.84267
C         10.92413         3.49087         0.94794
C         12.21259         1.42165         0.63262
C         12.19661         4.20124         1.31455
C         10.95115         6.35229         1.26380
C         10.87533         7.73984         1.86930
C         12.15527         5.70881         1.24728
C         12.15245         8.54113         1.67735
C         10.80295        10.75838         1.63361
C         10.86007        12.19313         1.22905
C         12.09411         9.99302         1.91448
C         12.11798        12.95091         1.48891
C         11.12958        15.23932         1.01209
C         11.15464        16.46075         0.32938
C         12.23332        14.40332         1.21166
C         12.38761        17.11795         0.24064
C         11.15343        19.18422        -0.38331
C         12.37718        18.54435        -0.08761
C         13.41567         2.16610         0.48368
C         13.42579         3.57726         0.73529
C         14.62345         1.53837         0.12427
C         14.60629         4.32600         0.69557
C         13.41829         6.42422         1.34506
C         13.39312         7.88693         1.48852
C         14.59413         5.73827         1.05723
C         14.59546         8.62687         1.34474
C         13.35993        10.79878         1.92206
C         13.30298        12.26925         1.77546
C         14.64910        10.08549         1.58829
C         14.65606        12.94028         2.10648
C         13.48773        15.07133         1.10247
C         13.53469        16.42938         0.70112
C         14.56862        14.51634         2.00886
C         14.85083        17.10714         0.45914
C         13.58805        19.26302         0.05644
C         14.79805        18.62052         0.38669
C         15.82646         2.27584         0.04461
C         15.83176         3.68291         0.33276
C         17.04003         1.61801        -0.26796
C         17.06266         4.41284         0.28068
C         15.89394         6.42813         1.15572
C         15.88943         7.95244         1.30642
C         17.10452         5.79758         0.62144
C         17.13235         8.70739         1.01025
C         15.81898        10.87667         1.00040
C         15.88952        12.30223         1.51252
C         17.13612        10.11400         1.07878
C         17.13775        12.98174         1.52316
C         15.94531        15.18884         1.85096
C         15.98328        16.60448         1.31757
C         17.19234        14.41524         1.69202
C         17.27636        17.25361         1.06234
C         16.00556        19.31952         0.48088
C         17.25455        18.67647         0.74261
C         18.25992         2.31347        -0.27932
C         18.27043         3.73098        -0.02538
C         19.48279         1.62341        -0.47580
C         19.50426         4.44223        -0.02429
C         18.30923         6.53862         0.55892
C         18.33401         7.96943         0.79074
C         19.52088         5.85160         0.22669
C         19.57656         8.67635         0.72774
C         18.37518        10.81958         1.11812
C         18.38261        12.27217         1.30339
C         19.57885        10.08396         0.97272
C         19.60224        12.99555         1.29477
C         18.40572        15.12521         1.51789
C         18.42431        16.57188         1.36525
C         19.63257        14.41186         1.35897
C         19.69602        17.34544         1.57208
C         18.45927        19.36824         0.66536
C         19.71263        18.70237         0.87075
C         20.71397         2.29335        -0.43441
C         20.71884         3.73127        -0.25389
C         21.93035         1.55938        -0.50625
C         21.94353         4.43817        -0.25360
C         20.76522         6.55368         0.22068
C         20.80153         7.96469         0.47938
C         21.96781         5.82129        -0.02521
C         22.05648         8.68269         0.34430
C         20.88156        10.76530         1.10458
C         20.89813        12.27561         1.25870
C         22.09264        10.10705         0.58065
C         22.12571        13.00469         0.88806
C         20.89373        15.14889         1.24183
C         20.92368        16.52501         1.29896
C         22.13456        14.41447         0.96676
C         22.20262        17.32111         1.31174
C         20.88754        19.32738         0.54603
C         22.16874        18.55805         0.40504
C         23.18588         2.19390        -0.47903
C         23.18849         3.67527        -0.52703
C         24.40520         1.49802        -0.50170
C         24.51540         4.35859        -0.27797
C         23.25530         6.52591         0.29797
C         23.22750         7.99753         0.00724
C         24.53490         5.81126        -0.03424
C         24.46351         8.71266        -0.35729
C         23.27816        10.82778         0.42291
C         23.32087        12.27504         0.56598
C         24.43670        10.18284        -0.15458
C         24.52225        12.96994         0.33269
C         23.34363        15.12976         0.78496
C         23.41873        16.52491         0.94727
C         24.53749        14.45149         0.18921
C         24.62259        17.22305         0.84193
C         23.45053        19.34579         0.57867
C         24.65113        18.67317         0.75154
C         25.67327         2.14489        -0.31205
C         25.69524         3.53747        -0.06770
C         26.90419         1.42995        -0.23898
C         26.91404         4.18376         0.40721
C         25.73068         6.46539         0.02801
C         25.82190         7.90503        -0.30514
C         26.94288         5.71623         0.42201
C         27.16088         8.51414        -0.12199
C         25.51169        10.96915        -0.50995
C         25.73757        12.30528        -0.03992
C         27.38720         9.88481        -0.48595
C         27.01457        12.91696         0.05556
C         25.86811        15.03972         0.57942
C         25.87538        16.46162         0.93701
C         27.04886        14.32525         0.40455
C         27.18473        17.22329         0.88273
C         25.92413        19.35326         0.67187
C         27.14652        18.68900         0.65150
C         28.15307         2.07995        -0.02471
C         28.19325         3.48550         0.27080
C         29.38124         1.38376        -0.07006
C         29.40472         4.18784         0.40428
C         28.25946         6.36461         0.42503
C         28.27794         7.80343         0.32129
C         29.42330         5.63108         0.54238
C         29.52640         8.50154         0.52440
C         28.34018        10.69064         0.07218
C         28.34495        12.18564        -0.24636
C         29.46666         9.97138         0.69342
C         29.57735        12.87565         0.33797
C         28.32663        15.03772         0.45233
C         28.37811        16.45613         0.53286
C         29.53632        14.30485         0.40628
C         29.59193        17.18907         0.29494
C         28.38525        19.35300         0.42818
C         29.59870        18.65577         0.29205
C         30.61591         2.06569         0.04855
C         30.64302         3.48637         0.24447
C         31.84414         1.36241        -0.08260
C         31.88275         4.20029         0.16013
C         30.73217         6.32270         0.86937
C         30.72750         7.81563         0.62265
C         31.93968         5.62035         0.30352
C         31.99197         8.52247         0.57981
C         30.78405        10.71081         0.83857
C         30.75720        12.17968         0.61190
C         32.01386         9.91943         0.67138
C         32.04078        12.87679         0.83450
C         30.77717        15.07720         0.54974
C         30.77893        16.49768         0.18953
C         32.07533        14.36153         0.69769
C         32.05514        17.17247        -0.21004
C         30.84885        19.32353         0.25190
C         32.08344        18.64279         0.14045
C         33.06207         2.04537        -0.16199
C         33.07975         3.48196        -0.10631
C         34.29862         1.34224        -0.32094
C         34.29447         4.18962        -0.33918
C         33.12553         6.33120         0.06352
C         33.19636         7.77478         0.21923
C         34.31178         5.61721        -0.32989
C         34.39094         8.43634        -0.10647
C         33.30456        10.61974         0.65638
C         33.34109        12.11788         0.69777
C         34.53394         9.87055         0.20364
C         34.53945        12.81309         0.16696
C         33.33069        15.02796         0.30545
C         33.32027        16.42141         0.14047
C         34.52423        14.27168         0.11245
C         34.54290        17.12510         0.06269
C         33.32122        19.28842         0.18954
C         34.56405        18.57583         0.09319
C         35.48624         2.01809        -0.53561
C         35.48949         3.46360        -0.61339
C         36.74178         1.30388        -0.64393
C         36.65449         4.16203        -1.00344
C         35.49963         6.30720        -0.70993
C         35.54136         7.75608        -0.63148
C         36.64272         5.56605        -1.09924
C         36.71196         8.48589        -0.94951
C         35.68663        10.64397        -0.30385
C         35.64076        12.08445        -0.29225
C         36.80726         9.90711        -0.73838
C         36.82213        12.81309        -0.84110
C         35.70179        14.98484        -0.16074
C         35.74811        16.38876        -0.03184
C         36.92514        14.33731        -0.74911
C         37.02540        17.06900        -0.03813
C         35.80095        19.22390         0.09072
C         37.03746        18.50313         0.04539
C         37.89134         1.93470        -1.02616
C         37.84225         3.36239        -1.41395
C         39.18701         1.27648        -0.98649
C         39.12509         4.06874        -1.73417
C         37.80784         6.26369        -1.77813
C         37.88964         7.77605        -1.51162
C         39.10468         5.53622        -1.38713
C         39.23603         8.45448        -1.37620
C         38.09259        10.58294        -0.89210
C         38.10476        12.06266        -0.98430
C         39.26265         9.90603        -1.07336
C         39.40414        12.77984        -0.83468
C         38.16964        14.81965         0.01253
C         38.22346        16.33576        -0.04625
C         39.44080        14.14164        -0.45703
C         39.46954        17.00400        -0.00583
C         38.27819        19.16050         0.12226
C         39.48909        18.43675         0.10292
C         40.35066         1.90729        -1.25208
C         40.45007         3.30601        -1.82469
C         41.62814         4.07424        -1.27627
C         40.39755         6.22467        -1.07635
C         40.47830         7.69205        -1.18622
C         41.62642         5.39175        -1.03346
C         41.65813         8.41121        -0.88746
C         40.55961        10.60183        -1.43661
C         40.60095        12.06453        -1.03619
C         41.72794         9.78569        -0.93871
C         41.81962        12.75514        -0.95343
C         40.67355        14.82807        -0.37092
C         40.70487        16.27269        -0.08135
C         41.85507        14.11200        -0.65053
C         41.90139        16.97368         0.04323
C         40.74608        19.10302         0.20908
C         41.91803        18.37852         0.20212
O         32.83961        12.52464         2.01687
O         34.26591        10.09924         1.64144
O         29.94287        10.37895         2.01222
O          8.13630         7.12001        -0.73228
O          9.88754        14.86078         1.51148
O          9.94205        16.38945        -1.80023
O         26.60987        16.79738         2.17315
O          7.44294         9.71120        -1.79384
O         14.29638        10.36004         2.96909
O         15.92158        16.35258         2.74270
O         25.12923         8.21379        -1.55975
O         26.47570        10.45020        -1.38616
O         31.45534        14.95506         1.89580
O         11.20944        10.44310         3.00854
O         37.26924        12.39421        -2.17820
O         23.94562         4.16899        -1.66967
O         21.08576        11.38995         2.42630
O         14.02680        14.89973         3.24907
O         39.43327         5.77832         0.01446
O          7.34238        14.08913        -2.62473
O         16.09006         7.05477         2.46889
O         38.24411         3.66053        -2.81333
O         26.72600         4.94597         1.65422
O         38.52301         8.36565        -2.71390
O          8.31893        10.46147         1.84383
O          4.87374        14.24899         0.07785
H          3.96520        13.94379         0.28325
O         23.30401         6.47218         1.79613
H         22.47832         6.88792         2.13010
O         10.75097         7.55177         3.31674
H         10.78097         8.45130         3.71893
O         19.71468        17.66276         3.00286
H         20.61302        18.02908         3.19671
O         22.17659        18.05097        -0.96932
H         22.19101        18.82018        -1.57608
O          4.41893         1.31763         2.58374
H          5.19311         1.00248         3.09489
O         37.02013        14.87738        -2.08790
H         37.25564        14.12209        -2.68170
O          3.06148         5.51677        -2.13122
H          3.89696         5.00783        -2.20584
O         30.87385         6.18670         2.32991
H         30.15031         6.69889         2.75038
O         40.62227        10.59104        -2.90306
H         40.12449         9.80652        -3.22228
O         24.42967        14.70999        -1.27972
H         25.15940        14.21405        -1.71066
O         40.74513         3.12484        -3.23971
H         39.87359         2.99729        -3.68341
O          2.07591        10.33649         0.34569
H          2.02835        11.31097         0.23642
O          3.26293         8.05912         1.41149
H          2.88455         8.97139         1.39093
O         37.56454         6.09653        -3.18798
H         37.97194         6.86706        -3.64780
O         15.49365        10.97481        -0.43298
H         16.24905        11.40534        -0.88715
O         28.54148        12.29939        -1.69450
H         27.80544        11.79507        -2.11439
O         10.23514         5.66333        -0.87064
H          9.67935         6.32060        -1.35140
O         22.39368        17.81863         2.67604
H         22.71155        17.07456         3.23031
O         15.26614        16.67419        -0.89137
H         14.58007        16.98098        -1.52228
O         12.31994         3.95032         2.77182
H         13.06203         4.50031         3.10459
O         14.94960        12.72218         3.50068
H         14.57204        13.54155         3.96320
O          4.32061         4.14131         2.41493
H          4.21996         3.20043         2.70627
O         37.98296        14.43090         1.40318
H         38.71893        14.80875         1.92855
O         32.03616        17.13328        -1.69230
H         32.83124        17.61749        -2.00394
H          0.78783         1.15655        -1.32162
H          0.75778         3.63063        -1.57190
H          2.64795         0.04720        -0.07226
H          0.34679         5.60026        -0.68516
H          0.35310         8.03980        -1.10031
H          0.65034         9.72928        -2.24496
H          0.93992        11.96804        -3.16246
H          0.92298        13.90922        -3.41364
H          0.95901        16.34388        -3.73416
H          2.07690        18.55191        -3.44712
H          4.86855         0.18535         0.87167
H          4.02423        19.89171        -2.71608
H          7.29146         0.21761         1.00398
H          6.34709        20.00975        -1.85301
H          9.75838         0.24648         0.75059
H          8.69728        20.14576        -1.14275
H         12.24333         0.33041         0.49474
H         11.15483        20.27576        -0.53039
H         14.64094         0.45587        -0.06879
H         13.58415        20.35576        -0.08035
H         17.02987         0.53612        -0.46487
H         16.00547        20.40910         0.31982
H         19.46325         0.53311        -0.62027
H         18.46600        20.41887         0.33494
H         21.88111         0.46238        -0.57272
H         20.85454        20.35356         0.14122
H         24.38576         0.39979        -0.56028
H         23.44785        20.43274         0.40113
H         26.89726         0.34246        -0.40179
H         25.91243        20.44366         0.52018
H         29.38367         0.29990        -0.25727
H         28.39269        20.45271         0.38000
H         31.82830         0.26639        -0.17492
H         30.85989        20.41877         0.36792
H         34.29216         0.24258        -0.29140
H         33.35385        20.37996         0.33147
H         36.76100         0.23650        -0.37597
H         35.83528        20.32276         0.14450
H         39.20159         0.22519        -0.65838
H         38.30861        20.25655         0.21435
H         41.29476         1.34597        -1.17804
H         42.57190         3.51345        -1.19207
H         42.56052         5.87611        -0.71180
H         42.56101         7.85293        -0.59950
H         42.68452        10.27572        -0.71162
H         42.76418        12.23325        -1.15758
H         42.82892        14.61889        -0.62737
H         42.86400        16.44599         0.00810
H         40.76593        20.19816         0.30415
H         42.88464        18.89281         0.29639
