         429
 CSIRO Nanostructure Databank - Neutral Graphene Oxide Data Set
C          1.24035         2.14897        -0.00137
C          1.21896         3.48100        -0.34100
C          2.44221         1.40737        -0.00575
C          2.45740         4.13190        -0.89677
C          1.27233         6.36094        -1.12550
C          1.27296         7.71566        -1.32362
C          2.45974         5.63664        -0.82300
C          2.55481         8.48726        -1.35823
C          1.22823        10.65980        -0.81272
C          1.20477        12.03349        -0.87070
C          2.45057         9.93169        -0.93115
C          2.45754        12.75291        -1.30706
C          1.45260        14.98860        -1.86931
C          1.50007        16.36740        -1.95978
C          2.48849        14.26874        -1.22313
C          2.60074        17.09123        -1.44143
C          2.65357        18.51444        -1.55214
C          3.69093         2.08406        -0.11212
C          3.70606         3.49312        -0.34412
C          4.91567         1.39958         0.07321
C          4.90089         4.22739        -0.17206
C          3.65543         6.36154        -0.53691
C          3.66786         7.76075        -0.65044
C          4.88903         5.65645        -0.21907
C          4.80084         8.51528        -0.02057
C          3.67626        10.64567        -0.72051
C          3.66181        12.06684        -0.72064
C          4.87733         9.96317        -0.40613
C          4.80400        12.78136        -0.35190
C          3.58334        14.96134        -0.70411
C          3.66696        16.38837        -0.78763
C          4.58315        14.20673         0.12996
C          4.78152        17.11912        -0.28760
C          3.74201        19.20848        -1.09632
C          4.84874        18.52368        -0.49151
C          6.13531         2.09992         0.10730
C          6.13384         3.52952         0.06649
C          7.38404         1.41331         0.14126
C          7.36438         4.23340         0.21152
C          6.11355         6.37261        -0.05982
C          6.11932         7.79219        -0.09819
C          7.35111         5.66573         0.12641
C          7.32396         8.52694        -0.00950
C          6.07993        10.68328        -0.25760
C          6.03153        12.09842        -0.22676
C          7.33584         9.96252        -0.06626
C          7.28253        12.92504        -0.35106
C          5.87799        14.95408         0.47221
C          5.87114        16.48951         0.56568
C          7.18166        14.22995         0.44315
C          7.22847        17.15240         0.28839
C          6.02986        19.24707        -0.19126
C          7.25214        18.57114         0.07918
C          8.60198         2.07148         0.27472
C          8.59318         3.52042         0.42442
C          9.80537         1.26108         0.03983
C          9.77892         4.30540         0.60001
C          8.56391         6.40544         0.20475
C          8.56577         7.82955         0.12339
C          9.79434         5.70873         0.38946
C          9.78872         8.54930         0.27525
C          8.55333        10.65472         0.04681
C          8.57734        12.12406        -0.13552
C          9.78640         9.98053         0.28629
C          9.81374        12.83591         0.30513
C          8.44514        15.01645         0.63488
C          8.45271        16.47923         0.38591
C          9.72371        14.27423         0.66879
C          9.68995        17.16237         0.27339
C          8.48378        19.26697         0.07411
C          9.71968        18.58600         0.18135
C         11.03095         1.52968         0.58177
C         11.04040         3.72276         0.91611
C         12.36559         1.05350         0.31663
C         12.25238         4.27787         0.52046
C         11.03948         6.41804         0.42734
C         11.00672         7.82864         0.44280
C         12.29187         5.69589         0.31069
C         12.24292         8.53655         0.75721
C         11.01874        10.69791         0.57391
C         11.03510        12.11053         0.72893
C         12.23915        10.01325         0.79228
C         12.20251        12.81896         1.06244
C         11.01511        14.97961         0.47273
C         10.98202        16.44850         0.29401
C         12.14733        14.33226         1.24632
C         12.25124        17.18025         0.48327
C         10.97027        19.27857         0.17358
C         12.22740        18.63027         0.28854
C         13.47462         1.90928         0.35333
C         13.39035         3.40110         0.11792
C         14.77146         1.33188         0.40610
C         14.60789         4.10892        -0.40198
C         13.51615         6.37250         0.03606
C         13.58336         7.78603         0.48132
C         14.67196         5.60869        -0.37011
C         14.74944         8.69509         0.38963
C         13.42172        10.71942         1.09836
C         13.44212        12.13452         1.24102
C         14.68666         9.95480         1.20770
C         14.69859        12.85681         1.47640
C         13.48722        14.96522         0.84066
C         13.40816        16.49415         0.77233
C         14.62878        14.36725         1.70921
C         14.69494        17.14909         0.47775
C         13.43331        19.34825         0.25558
C         14.71534        18.67212         0.15105
C         15.96978         2.02333         0.14897
C         15.91133         3.32081        -0.63654
C         17.21483         1.43181         0.38351
C         17.17196         4.14217        -0.50934
C         15.83979         6.17964        -0.87301
C         15.85054         8.45069        -0.38119
C         17.12252         5.51297        -0.88268
C         17.13722         9.05582        -0.10963
C         15.95614        10.71883         1.45169
C         15.91923        12.21360         1.59432
C         17.19191        10.06083         0.93113
C         17.18011        12.98153         1.64779
C         15.94910        15.12060         1.47116
C         15.95829        16.54928         0.98156
C         17.21108        14.37396         1.36101
C         17.22378        17.15854         0.54103
C         16.01805        19.31601         0.22973
C         17.21280        18.56121         0.20181
C         18.44370         2.11044         0.12163
C         18.39835         3.50355        -0.28658
C         19.68409         1.48847         0.27136
C         19.62016         4.22763        -0.44622
C         18.33859         6.20377        -1.12056
C         18.32869         8.48488        -0.56030
C         19.59055         5.57637        -0.91852
C         19.60918         8.83463        -0.01146
C         18.38717        10.31833         1.53033
C         18.43419        12.40030         1.92814
C         19.67060         9.80304         1.09524
C         19.69066        12.94283         1.53280
C         18.43171        15.04492         1.10578
C         18.42347        16.44447         0.69940
C         19.67707        14.32980         1.16201
C         19.65986        17.08663         0.37691
C         18.45600        19.18910        -0.06518
C         19.66102        18.46836        -0.03359
C         20.91042         2.18783         0.05378
C         20.87567         3.59446        -0.24585
C         22.15041         1.52943         0.10300
C         22.09708         4.32859        -0.38351
C         20.84581         6.25604        -1.08226
C         20.81059         8.36370        -0.52648
C         22.07588         5.75510        -0.66957
C         22.08950         8.78167        -0.05065
C         20.96262        10.67677         1.21429
C         20.92006        12.16973         1.43851
C         22.13550        10.07656         0.53610
C         22.14461        12.87184         1.30755
C         20.91301        15.00030         0.89575
C         20.88581        16.37811         0.47364
C         22.15179        14.31704         1.09310
C         22.09026        17.03450         0.08287
C         20.88404        19.10263        -0.39670
C         22.09454        18.40919        -0.37619
C         23.35837         2.21991        -0.15576
C         23.31612         3.63175        -0.37712
C         24.60235         1.51918        -0.15353
C         24.54291         4.38154        -0.69582
C         23.29480         6.58085        -0.55005
C         23.27516         7.98733        -0.32378
C         24.55331         5.85689        -0.51663
C         24.55462         8.71008        -0.15742
C         23.37948        10.74813         0.69929
C         23.37725        12.09018         1.20993
C         24.58220        10.06240         0.44461
C         24.64071        12.61627         1.50707
C         23.34982        15.07399         0.82254
C         23.30298        16.34072         0.19538
C         24.66079        14.64025         1.21438
C         24.52862        16.91501        -0.40107
C         23.33118        19.04718        -0.71267
C         24.55118        18.36359        -0.71065
C         25.83107         2.16762        -0.31990
C         25.84998         3.61681        -0.63411
C         27.06409         1.49476        -0.24075
C         27.09157         4.35847        -0.35333
C         25.79296         6.46973        -0.28981
C         25.85156         7.93460        -0.15014
C         27.04271         5.75800        -0.19665
C         26.98845         8.50305         0.67147
C         25.84130        10.70627         0.64668
C         25.86654        12.07799         1.04512
C         27.06622        10.00071         0.58441
C         27.08112        12.83821         0.95359
C         25.85991        15.01844         0.63837
C         25.82681        16.17130        -0.28710
C         27.09480        14.27740         0.81483
C         27.14768        16.83661        -0.62343
C         25.79795        19.00438        -0.89555
C         27.04705        18.35218        -0.75280
C         28.30102         2.19210        -0.30836
C         28.30430         3.63466        -0.26714
C         29.53121         1.50766        -0.34575
C         29.54611         4.34070        -0.15214
C         28.28416         6.46661         0.08796
C         28.29169         7.81339         0.41825
C         29.53381         5.74273         0.04239
C         29.51853         8.48232         0.96969
C         28.28963        10.68762         0.71190
C         28.29777        12.12428         0.76121
C         29.53382         9.98122         0.79178
C         29.54151        12.81521         0.66625
C         28.31172        14.94860         0.57116
C         28.23808        16.45398         0.39307
C         29.54700        14.25164         0.57073
C         29.53145        17.08611        -0.03215
C         28.25364        19.03994        -0.80560
C         29.51418        18.37071        -0.57563
C         30.76696         2.19995        -0.34772
C         30.78279         3.63467        -0.21925
C         31.99257         1.51435        -0.47195
C         32.01810         4.34868        -0.16639
C         30.77163         6.44675         0.19293
C         30.79087         7.82796         0.52026
C         31.99929         5.74764         0.01003
C         32.01941         8.51221         0.73688
C         30.73830        10.66969         0.85150
C         30.76081        12.09131         0.71196
C         31.99094         9.92679         1.27102
C         32.02085        12.79120         0.67398
C         30.79360        14.92612         0.42495
C         30.83517        16.44137         0.35481
C         32.00799        14.22306         0.45615
C         31.93474        16.87676        -0.61812
C         30.75324        19.05466        -0.83188
C         31.97435        18.38010        -0.78890
C         33.23203         2.19180        -0.42294
C         33.27657         3.62929        -0.20988
C         34.43032         1.50101        -0.63640
C         34.50158         4.27026        -0.02041
C         33.25481         6.50990         0.03885
C         33.23549         7.87578         0.57388
C         34.56682         5.74481         0.03462
C         34.47158         8.47536         1.19944
C         33.29177        10.67067         1.01245
C         33.23152        12.09770         0.83427
C         34.49230         9.99019         1.07016
C         34.48365        12.87611         0.96671
C         33.26352        14.91637         0.22458
C         33.25860        16.25427        -0.24567
C         34.50691        14.25433         0.42519
C         34.45485        16.91485        -0.54342
C         33.20162        19.00816        -1.04195
C         34.43486        18.29855        -0.98515
C         35.69394         2.14622        -0.53455
C         35.75082         3.53671        -0.07739
C         36.83866         1.47705        -0.94235
C         36.96145         4.18791         0.11727
C         35.79202         6.43965         0.51065
C         35.77781         7.76589         0.83437
C         36.98717         5.55009         0.80770
C         37.04541         8.51206         1.10038
C         35.79410        10.66871         1.49428
C         35.76323        12.19630         1.33517
C         37.03910         9.98991         0.95912
C         37.08847        12.97764         1.23407
C         35.72207        14.87771         0.10329
C         35.70620        16.21659        -0.43574
C         37.00243        14.21374         0.31219
C         36.88693        16.84575        -0.85958
C         35.64223        18.93099        -1.28892
C         36.87659        18.22517        -1.24065
C         38.15829         2.06319        -0.76415
C         38.22967         3.47415        -0.13653
C         39.23644         1.66641        -1.68432
C         39.41665         4.28081        -0.48784
C         38.34006         6.28098         0.71723
C         38.35108         7.77720         0.92478
C         39.55714         5.61152         0.14914
C         39.54342         8.55336         0.48779
C         38.26202        10.70336         0.84113
C         38.29184        12.11254         0.91224
C         39.51277         9.97073         0.56309
C         39.57748        12.88734         0.84126
C         38.14955        14.79254        -0.17063
C         38.13310        16.03006        -1.05424
C         39.44238        14.08657        -0.10280
C         39.40414        16.85973        -0.98265
C         38.08912        18.88910        -1.50656
C         39.34451        18.24819        -1.30187
C         40.25489         2.50802        -1.97973
C         40.35054         3.83050        -1.39374
C         41.35823         4.75462        -1.90420
C         40.85592         6.37978        -0.08590
C         40.71075         7.88626         0.05085
C         41.52131         5.98441        -1.38661
C         41.89230         8.61745        -0.17835
C         40.73414        10.68900         0.33865
C         40.79213        12.10087         0.45246
C         41.91340         9.98477        -0.02062
C         41.99559        12.85647         0.35295
C         40.72764        14.81583        -0.42035
C         40.65734        16.26281        -0.75477
C         41.96683        14.20193         0.08189
C         41.82933        17.03993        -0.82215
C         40.54233        19.00250        -1.38405
C         41.76853        18.40005        -1.14451
O         13.57842         3.64594        -1.35379
O         16.00884        16.25002         2.42639
O         11.04690         2.51450         1.59685
O         13.00297         7.91093         1.82795
O         20.80239         7.53842        -1.65551
O         20.57163         9.67306         2.23151
O         34.05966         6.36086        -1.20806
O         24.70974        13.76190         2.31003
O         40.05780        13.91898        -1.42106
O         18.43107        11.18389         2.62764
O         34.94532        12.79407         2.40795
O         25.00824        16.00816        -1.49534
O          9.57777        12.56587        -1.13024
O          6.40997        14.27977         1.68097
O          9.06958        14.60794         1.92016
O         25.46882         8.66205        -1.34063
O         14.76786        17.58753        -0.88121
O         15.31286         9.95322         2.53220
O         15.79599         7.48026        -1.39053
O         37.86194         8.09497         2.26954
O         25.22240         3.93447        -1.92665
O         38.52067         2.27786         0.64813
O         11.20868        15.45713        -0.87622
O         39.28916         5.58962         1.60529
O         18.28357         7.53031        -1.59421
O          3.88348        14.02780         1.40230
H          4.56950        13.80156         2.07151
O         14.33682        14.50887         3.11929
H         14.77459        15.33956         3.42583
O         36.80297         5.21851         2.21328
H         37.69338         4.99250         2.56935
O         39.90601        13.44926         2.15455
H         39.05948        13.55559         2.65587
O         29.46661         8.28458         2.46875
H         29.60953         7.32563         2.63010
O         31.89559         9.84044         2.72695
H         31.07526         9.32568         2.92668
O         31.56592        16.31514        -1.90929
H         32.22939        16.60945        -2.56748
O         27.86471        17.04575         1.67042
H         28.65706        17.02150         2.24959
O          2.95224         8.56309        -2.80817
H          2.96445         7.64387        -3.15410
O         27.58050        16.32406        -1.90040
H         26.77065        16.21621        -2.44960
O         26.64033         8.20780         2.07316
H         27.45484         8.38760         2.60272
O         15.91308         2.91051        -2.03578
H         14.96474         2.81507        -2.29464
O         31.14487        16.92041         1.69899
H         31.98132        16.49132         1.98114
O          2.53130        12.49556        -2.76119
H          2.62027        11.52460        -2.88511
O         41.78439         5.96470         0.95325
H         41.25258         5.86706         1.77643
O         13.79196        14.54176        -0.50694
H         13.06007        14.87011        -1.08614
O         38.07284        15.50872        -2.43141
H         38.83074        14.87666        -2.51069
O         11.80988        14.62496         2.61362
H         12.58208        14.37633         3.18106
O          5.54630        16.82185         1.94499
H          6.02266        16.16974         2.50745
O          4.47149         8.54168         1.43279
H          5.20385         9.01287         1.88547
O         34.34629         8.17822         2.62688
H         34.98881         8.77480         3.09020
O         35.83984        10.42444         2.94443
H         35.24536        11.10050         3.34868
O          2.46039         3.82174        -2.35905
H          2.48096         2.84373        -2.43975
O         37.31687        13.54863         2.56320
H         36.42286        13.64419         2.97751
O          7.27522        13.38256        -1.73631
H          8.18559        13.24607        -2.09545
H          0.30566         1.64537         0.28686
H          0.26894         4.03255        -0.31870
H          2.42791         0.33077         0.21320
H          0.32768         5.81059        -1.24335
H          0.34526         8.21605        -1.63564
H          0.28183        10.11083        -0.69676
H          0.24584        12.57059        -0.82787
H          0.60739        14.43714        -2.30429
H          0.68786        16.91713        -2.45727
H          1.81380        19.04159        -2.02765
H          4.91286         0.30553         0.18885
H          3.79647        20.30090        -1.20938
H          7.37770         0.31892         0.02915
H          6.04293        20.33647        -0.34605
H          9.69843         0.42010        -0.66153
H          8.47849        20.36105        -0.04382
H         12.54377        -0.02204         0.15802
H         10.95747        20.37157         0.04828
H         14.84115         0.27303         0.70236
H         13.41655        20.44641         0.31001
H         17.25355         0.41987         0.81591
H         16.07568        20.41369         0.20084
H         19.72581         0.42433         0.54764
H         18.47179        20.25430        -0.33813
H         22.18288         0.44934         0.30770
H         20.86288        20.15681        -0.71018
H         24.59162         0.43545         0.03697
H         23.31644        20.12111        -0.95231
H         27.07386         0.40144        -0.11646
H         25.79970        20.09236        -1.06904
H         29.53545         0.40883        -0.39372
H         28.26380        20.11933        -1.02233
H         31.98781         0.42339        -0.61345
H         30.72842        20.12523        -1.08595
H         34.40068         0.43278        -0.89690
H         33.22123        20.08452        -1.27124
H         36.74876         0.50853        -1.45706
H         35.64271        19.99028        -1.58526
H         39.13759         0.70534        -2.21103
H         38.07226        19.95343        -1.78331
H         41.02463         2.21224        -2.70728
H         41.93509         4.44023        -2.78694
H         42.26081         6.66806        -1.82723
H         42.81501         8.08478        -0.44264
H         42.85007        10.53253        -0.18351
H         42.96895        12.37060         0.51812
H         42.89354        14.78944         0.12564
H         42.80948        16.57995        -0.64047
H         40.48615        20.07143        -1.63435
H         42.69543        18.98656        -1.20675
