         314
 CSIRO Nanostructure Databank - Neutral Graphene Oxide Data Set
C         30.70990        57.11434         2.17528
C         30.70246        58.53019         2.14120
C         29.46364        59.21689         2.29321
C         30.54352        61.29312         1.70560
C         29.39689        60.58479         2.08444
C         33.03847        52.79391         1.27678
C         33.00784        54.21729         1.38580
C         31.85233        54.94325         1.77804
C         33.07877        57.08838         1.61634
C         31.86024        56.36080         1.84634
C         33.12793        58.50676         1.77800
C         31.90824        59.27329         1.90005
C         32.88852        61.50840         1.10624
C         31.81693        60.68484         1.62851
C         35.40834        48.50873         0.35670
C         35.40129        49.92121         0.51160
C         34.26090        50.63870         0.88211
C         35.37385        52.80611         0.55237
C         34.22404        52.07937         0.94027
C         35.31878        54.25813         0.45892
C         34.18560        54.95943         1.06825
C         35.49729        57.05401         1.13648
C         34.25689        56.36434         1.25501
C         35.60255        58.41186         1.51585
C         34.41235        59.10219         1.87465
C         35.34824        61.81932         0.62479
C         34.24206        61.28917         1.33115
C         37.67166        44.25268        -0.55858
C         37.68201        45.63500        -0.63840
C         36.55876        46.39496        -0.17418
C         37.71806        48.55834        -0.57698
C         36.53719        47.79303        -0.09698
C         37.87632        49.97850        -0.19732
C         36.69199        50.64238         0.38939
C         37.84590        52.88891        -0.10400
C         36.67072        52.15081         0.41276
C         37.87981        54.25516        -0.05663
C         36.62840        54.99634         0.23151
C         38.03345        57.09797         0.62334
C         36.73908        56.33500         0.85276
C         37.98035        58.58406         0.70514
C         36.84058        59.11991         1.35440
C         37.77696        61.58801        -0.00388
C         36.66743        61.31890         0.78184
C         40.05472        39.93215         0.50765
C         39.66654        41.30904         0.39629
C         38.72303        41.93856        -0.36941
C         40.18778        44.12913        -0.95095
C         38.85055        43.39102        -0.76468
C         40.18010        45.60437        -1.27848
C         38.87177        46.34678        -1.18029
C         40.23556        48.51840        -1.10946
C         38.91965        47.84231        -1.10348
C         40.35135        49.94553        -0.62980
C         39.02303        50.65818        -0.49378
C         40.25128        52.88408        -1.00304
C         38.99403        52.13074        -0.63057
C         40.27149        54.34726        -0.79997
C         39.07196        55.02886        -0.38567
C         40.20808        57.21783        -0.58824
C         39.07805        56.40941        -0.15399
C         40.35515        58.61351         0.01391
C         39.04991        59.36594         0.20145
C         40.16745        61.49053        -0.37188
C         39.00374        60.80072        -0.02267
C         42.69166        35.97381         1.45968
C         42.64708        37.36224         1.27185
C         41.46239        38.04172         0.96574
C         42.60399        40.23907         0.78436
C         41.34696        39.46326         0.82576
C         42.66075        41.58708         0.34310
C         41.56080        42.45253         0.31333
C         42.70599        44.28753        -0.79716
C         41.49320        43.60221        -0.49321
C         42.68255        45.68062        -1.17202
C         41.45297        46.37236        -1.28056
C         42.64360        48.56637        -1.65499
C         41.40875        47.81278        -1.29060
C         42.73025        50.05258        -1.52610
C         41.52675        50.74896        -1.18708
C         42.76649        52.88357        -1.16823
C         41.53664        52.14523        -1.11205
C         42.73448        54.30087        -1.01208
C         41.49693        55.01464        -0.92679
C         42.78117        57.22364        -0.84691
C         41.50212        56.48509        -0.95342
C         42.74716        58.63079        -0.80331
C         41.44061        59.33378        -0.75354
C         42.71195        61.51707        -0.71862
C         41.41709        60.83672        -0.76951
C         45.13912        33.27214         2.36530
C         43.92952        33.92632         2.07941
C         45.15310        36.03218         1.76888
C         43.90524        35.30385         1.79307
C         45.17804        37.40490         1.45027
C         43.87617        38.17295         1.59580
C         45.07836        40.14590         0.72060
C         43.85146        39.53389         0.95504
C         45.12009        41.58717         0.37517
C         43.90804        42.12355        -0.33312
C         45.14567        44.33838        -0.57382
C         43.93438        43.62816        -0.52020
C         45.12730        45.72464        -0.92940
C         43.93682        46.37404        -1.25630
C         45.20953        48.53962        -1.91079
C         43.92462        47.77486        -1.74167
C         45.20773        50.05059        -2.05908
C         43.93865        50.76331        -1.71347
C         45.24899        52.87772        -1.39940
C         44.00080        52.17358        -1.41517
C         45.30676        54.30043        -1.00587
C         43.98563        55.04848        -0.80612
C         45.22589        57.25583        -0.96466
C         44.00466        56.53251        -0.87766
C         45.16967        58.66935        -0.99311
C         43.94321        59.36307        -0.88138
C         45.14405        61.50271        -0.48508
C         43.90528        60.82628        -0.76016
C         46.34505        33.95757         2.34660
C         47.59142        36.07576         2.01086
C         46.38402        35.34586         2.02848
C         47.65818        37.41157         1.57016
C         46.40655        38.06970         1.22012
C         47.46786        40.10449         0.28423
C         46.32748        39.44757         0.79304
C         47.65728        41.50372         0.18718
C         46.41072        42.29840         0.19834
C         47.63388        44.28288        -0.49047
C         46.42164        43.66418        -0.36032
C         47.67583        45.75954        -0.56788
C         46.38637        46.50300        -0.82334
C         47.74542        48.56726        -1.63328
C         46.43484        47.90906        -1.33272
C         47.76813        50.04858        -1.64261
C         46.54568        50.81879        -2.12075
C         47.70460        52.95817        -1.58040
C         46.49215        52.24267        -1.63235
C         47.73465        54.38702        -1.44068
C         46.54011        55.08462        -1.23542
C         47.67674        57.27429        -1.27470
C         46.51164        56.54463        -1.12993
C         47.67765        58.75747        -1.21226
C         46.37199        59.52013        -1.32760
C         47.53763        61.45852        -0.06436
C         46.35962        60.84745        -0.57278
C         48.93679        38.08622         1.68609
C         50.27253        40.19149         1.00066
C         49.28999        39.17752         0.89225
C         50.17357        41.46784         0.36900
C         48.91466        42.09932         0.00687
C         50.22655        44.24775        -0.60194
C         48.91226        43.51009        -0.47774
C         50.25743        45.71879        -0.72104
C         48.97835        46.45921        -0.74341
C         50.25445        48.59397        -1.08720
C         49.01317        47.83384        -1.32380
C         50.22463        50.00114        -1.18742
C         48.95513        50.70260        -1.45196
C         50.26105        52.88442        -1.50749
C         48.96894        52.17498        -1.68327
C         50.30765        54.36260        -1.53667
C         49.04330        55.14939        -1.20854
C         50.19294        57.39561        -1.06053
C         49.00088        56.62755        -1.67291
C         50.01946        58.59426        -0.19836
C         48.86394        59.44620        -0.59199
C         49.91832        61.39600         0.58308
C         48.77228        60.80680        -0.00414
C         51.37332        42.25255         0.33014
C         52.64190        44.33589        -0.05673
C         51.44933        43.58012        -0.10243
C         52.67768        45.72108        -0.34883
C         51.43358        46.42681        -0.64050
C         52.66057        48.59072        -0.64323
C         51.44412        47.88448        -0.77894
C         52.66196        50.01001        -0.73814
C         51.44668        50.69525        -0.97815
C         52.75136        52.89737        -0.87200
C         51.44301        52.16734        -0.95165
C         52.80972        54.33595        -1.25181
C         51.55691        54.89357        -1.74107
C         52.70954        57.53301        -0.77311
C         51.45835        57.06621        -1.39272
C         52.57503        58.73400         0.08047
C         51.23393        59.30478         0.30928
C         52.32253        61.32486         1.22053
C         51.16262        60.73589         0.69025
C         53.87183        46.45765        -0.26497
C         55.10702        48.57620        -0.30512
C         53.90116        47.86702        -0.40992
C         55.16176        49.99141        -0.39585
C         53.92272        50.73607        -0.62062
C         55.24274        52.85971        -0.66466
C         53.97631        52.10719        -0.76147
C         55.18164        54.37407        -0.57031
C         53.89179        55.09862        -0.84622
C         54.96892        57.10927         0.32519
C         53.90632        56.59287        -0.62360
C         54.90005        58.51834         0.81432
C         53.66500        59.32501         0.64572
C         54.69942        61.15475         1.92635
C         53.56283        60.62407         1.29429
C         56.36294        50.67827        -0.19603
C         57.52074        52.79288         0.30041
C         56.42429        52.10918        -0.15425
C         57.39492        54.21437         0.76688
C         56.30749        55.04975         0.12506
C         57.39766        57.06697         1.04582
C         56.27361        56.39194         0.40739
C         57.33881        58.40840         1.43904
C         56.17604        59.28889         1.04350
C         57.05994        61.02563         2.59638
C         55.96306        60.49906         1.93408
C         58.67874        54.96347         0.91879
C         59.78411        57.00538         1.71644
C         58.63807        56.32739         1.21922
C         59.69732        58.32869         2.18417
C         58.45260        59.03349         2.06860
C         59.45370        60.95111         3.21548
C         58.33267        60.35627         2.61167
C         60.81364        58.98842         2.78075
C         60.68430        60.27370         3.27942
O         51.86931        52.73529         0.33437
O         48.36808        46.35372         0.59990
O         39.35774        45.86989        -2.46656
O         48.50721        47.91616        -2.70494
O         43.09892        47.99142        -2.92725
O         37.03681        51.35801         1.62886
O         40.47790        42.19385         1.14393
O         39.28642        52.48506        -2.04637
O         48.71257        59.38388        -2.06398
O         49.61073        43.60874        -1.78507
O         55.60379        53.68727        -1.82502
O         36.89575        60.41019         1.85462
O         34.53168        60.37517         2.38776
O         48.47010        39.30737        -0.25697
O         51.67314        56.12256        -2.38774
O         45.23593        49.13995        -3.22023
O         54.58357        57.40061         1.72468
O         49.83843        52.44297        -2.85544
O         46.86056        50.98290        -3.59981
O         35.68179        54.89040        -0.86100
O         53.81755        57.51968        -1.74770
O         46.23102        47.65809         0.09355
O         39.55505        43.40343        -2.06412
O         41.10640        59.98966        -1.98821
O         37.75139        56.41783         1.91253
O         50.34939        58.46725         1.20564
O         45.66488        42.35701         1.49478
O         40.60288        57.06092        -1.97023
O         37.93703        48.43759        -2.03714
O         44.74735        54.54018         0.34680
O         40.91156        58.41854         1.35189
H         40.19977        58.08271         1.93838
O         49.11808        55.26113         0.24996
H         49.21439        54.36570         0.63750
O         56.51565        59.82549        -0.27617
H         57.32808        60.36580        -0.17987
O         43.96083        41.53482        -1.67128
H         43.19885        41.87594        -2.18624
O         56.91323        54.04401         2.17993
H         56.80125        54.94449         2.55781
O         49.06695        56.67111        -3.10237
H         49.08288        57.61595        -3.36969
O         40.76514        49.75953         0.79218
H         40.70341        50.62837         1.24494
O         43.78757        38.44128         3.04577
H         43.78460        37.57278         3.50224
O         46.21156        59.86564        -2.73295
H         47.09801        60.15098        -3.05094
O         45.70980        51.59957        -4.21156
H         45.22486        50.82265        -4.58859
H         29.76653        56.58780         2.38639
H         28.55696        58.64091         2.52686
H         30.45885        62.36508         1.47550
H         28.43643        61.11107         2.17329
H         32.12663        52.22617         1.51253
H         30.92255        54.40186         2.00336
H         32.59330        62.37029         0.48928
H         34.49260        47.94889         0.60030
H         33.32392        50.09005         1.05979
H         35.14900        62.49773        -0.21640
H         36.78079        43.77129        -0.12523
H         35.67595        45.83747         0.17464
H         37.73969        62.45146        -0.68441
H         39.29097        39.16858         0.28970
H         38.00720        41.34965        -0.96272
H         40.12204        62.58851        -0.44477
H         41.77135        35.38086         1.34239
H         40.54380        37.44549         0.84194
H         42.72181        62.59903        -0.51665
H         45.12664        32.19827         2.59926
H         42.98743        33.35959         2.08232
H         45.10499        62.53623        -0.10724
H         47.28523        33.43073         2.56390
H         48.52203        35.56516         2.30041
H         47.44482        62.46059         0.38279
H         49.64132        37.70690         2.44176
H         51.17168        39.99678         1.60555
H         49.83155        62.42549         0.96317
H         52.29874        41.77470         0.68744
H         53.57190        43.84022         0.26092
H         52.27590        62.35872         1.59546
H         54.81283        45.92903        -0.05061
H         56.04022        48.02106        -0.12694
H         54.61271        62.11799         2.45313
H         57.26922        50.10733         0.05708
H         58.41138        52.23387         0.62736
H         56.95828        61.96812         3.15623
H         59.61259        54.40127         1.07141
H         60.73300        56.45639         1.80777
H         59.36385        61.96035         3.64214
H         61.77344        58.45724         2.85208
H         61.54753        60.76851         3.74619
