         324
 CSIRO Nanostructure Databank - Neutral Graphene Oxide Data Set
C         30.41182        56.87205        -0.09165
C         30.35095        58.29528        -0.14677
C         29.11978        58.98787        -0.26969
C         30.28132        61.11570        -0.45383
C         29.10286        60.37772        -0.43042
C         32.95332        52.69673         0.57991
C         32.93455        54.06295         0.31031
C         31.63426        54.69093        -0.13455
C         32.85129        56.92359        -0.05606
C         31.62134        56.19772        -0.05782
C         32.79695        58.33528        -0.10135
C         31.57120        59.03315        -0.14498
C         32.72965        61.22615        -0.23138
C         31.55084        60.48290        -0.27977
C         35.40255        48.71256         0.06940
C         35.40712        49.89792         0.71976
C         34.13293        50.54958         1.19913
C         35.34828        52.75573         0.99743
C         34.15017        52.03602         0.91338
C         35.35727        54.16030         0.73287
C         34.13458        54.81556         0.38291
C         35.32504        56.95165         0.15354
C         34.12066        56.23529         0.11342
C         35.35205        58.39111        -0.13477
C         34.03681        59.11808        -0.23941
C         35.28616        61.27506        -0.17310
C         34.01086        60.56919         0.19190
C         37.88307        44.65154        -1.10496
C         37.83976        46.02416        -1.06346
C         36.63450        46.73510        -0.74106
C         37.87311        48.78864        -0.17060
C         36.63873        48.04664        -0.30397
C         37.91358        50.04293         0.41456
C         36.69965        50.51271         1.20925
C         37.88416        52.82498         1.24026
C         36.61517        52.04559         1.32572
C         37.82932        54.29143         1.05744
C         36.57216        54.92531         0.81504
C         37.72644        57.11168         0.71453
C         36.54993        56.32889         0.54699
C         37.73736        58.52297         0.51964
C         36.55449        59.18026         0.15364
C         37.76251        61.29088        -0.15589
C         36.50372        60.61122        -0.06068
C         40.31366        40.36600        -1.25039
C         40.32195        41.80240        -1.29621
C         39.12160        42.53025        -1.19712
C         40.36167        44.63026        -1.35863
C         39.12728        43.93287        -1.24007
C         40.38627        46.11102        -1.65686
C         39.06893        46.81476        -1.31413
C         40.38289        48.85328        -0.49121
C         39.08740        48.21940        -0.78807
C         40.34415        50.19351        -0.05031
C         39.14053        50.80964         0.39005
C         40.30183        52.96191         0.83269
C         39.15312        52.17482         0.84049
C         40.29679        54.35623         1.24349
C         39.00662        55.01315         1.23380
C         40.16935        57.28910         1.55462
C         38.91660        56.47912         1.29977
C         40.16920        58.66875         1.00299
C         38.99027        59.26476         0.60214
C         40.19991        61.33107        -0.08121
C         38.97037        60.65448         0.12915
C         42.47318        36.19084        -0.12943
C         42.59402        37.49996        -0.69438
C         41.44373        38.22657        -0.97633
C         42.76920        40.26283        -1.61235
C         41.47086        39.61228        -1.31068
C         42.81202        41.76854        -1.55221
C         41.55048        42.51096        -1.35514
C         42.88315        44.63888        -1.56740
C         41.56928        43.91834        -1.37823
C         42.83527        46.06974        -1.08795
C         41.63399        46.77993        -1.08277
C         42.85332        48.83523        -0.39702
C         41.60670        48.15693        -0.67351
C         42.87449        50.22707        -0.13533
C         41.59584        50.96056        -0.13587
C         42.79973        53.05166         0.72961
C         41.55690        52.41946         0.30305
C         42.74239        54.27320         1.40463
C         41.49937        55.04210         1.47832
C         42.70394        57.32424         1.44170
C         41.48073        56.54650         1.92759
C         42.63624        58.55869         0.57418
C         41.46736        59.44797         1.01660
C         42.63931        61.31298        -0.18657
C         41.43452        60.72507         0.19708
C         44.55815        33.65193         1.60790
C         43.44875        34.24601         1.00862
C         44.95811        35.93093        -0.09440
C         43.57465        35.46652         0.29622
C         45.02554        37.40836        -0.42383
C         43.91781        38.10839        -0.81307
C         45.23494        40.27214        -0.99154
C         44.06578        39.45040        -1.52787
C         45.23629        41.66769        -0.85414
C         44.06467        42.46097        -1.16587
C         45.27243        44.53797        -0.69615
C         44.06868        43.84419        -1.06262
C         45.28100        45.96533        -0.62483
C         44.06565        46.71345        -0.72932
C         45.32771        48.81926        -0.33934
C         44.08196        48.11344        -0.46446
C         45.31971        50.23659        -0.11861
C         44.10223        50.92895         0.02353
C         45.36350        53.05291         0.81016
C         44.07473        52.39654         0.35135
C         45.25474        54.31154         1.61853
C         43.99970        54.76582         1.93576
C         45.20185        57.44281         1.49001
C         43.91316        56.93107         1.90792
C         45.17979        58.78146         0.91923
C         43.93561        59.35588         0.57176
C         45.11750        61.36213        -0.21453
C         43.90879        60.68394         0.05765
C         45.81831        34.26764         1.57910
C         47.25813        36.12982         0.90806
C         46.03902        35.45485         0.85192
C         47.47475        37.38099         0.27120
C         46.38243        37.99693        -0.50877
C         47.64426        40.22202        -0.23800
C         46.47404        39.52616        -0.77349
C         47.60164        41.60756        -0.09403
C         46.43576        42.36413        -0.43515
C         47.64810        44.51994        -0.04851
C         46.44882        43.79430        -0.38912
C         47.70132        45.90187        -0.11996
C         46.51249        46.66279        -0.40435
C         47.86009        48.79389        -0.59051
C         46.54052        48.07602        -0.39662
C         47.86059        50.14576         0.11284
C         46.63465        51.01504        -0.14551
C         47.67186        52.49239         1.54508
C         46.56935        52.18885         0.81144
C         47.63725        54.64685         2.03343
C         46.40921        55.23100         1.80614
C         47.66778        57.37533         1.45627
C         46.36027        56.67946         1.59970
C         47.66854        58.80982         0.91544
C         46.38222        59.45911         0.62184
C         47.60648        61.38051        -0.34663
C         46.37030        60.74668         0.00739
C         48.68484        38.06244         0.40792
C         50.01913        40.12735         0.41759
C         48.80820        39.45898         0.15894
C         50.08036        41.53952         0.47222
C         48.79754        42.28202         0.44975
C         50.14883        44.44942         0.44882
C         48.83041        43.78271         0.45873
C         50.20964        45.83326         0.32599
C         48.92110        46.63475         0.41589
C         50.36524        48.70735        -0.19665
C         49.06356        47.98832        -0.19810
C         50.25165        49.82860         0.88903
C         48.97925        50.61415         0.73533
C         50.14295        52.69229         1.50392
C         48.98588        51.95559         1.30096
C         50.19241        54.20993         1.50394
C         48.96650        55.15438         1.64673
C         49.68126        57.06914         0.14441
C         48.84790        56.54445         1.09297
C         49.87110        58.45906        -0.16273
C         48.84508        59.31287         0.16540
C         50.05436        61.20413        -0.78197
C         48.82910        60.68331        -0.31872
C         51.27636        42.23433         0.61764
C         52.58238        44.32208         0.68705
C         51.34633        43.66564         0.58889
C         52.66960        45.73172         0.59882
C         51.47479        46.48845         0.35539
C         52.76511        48.56168         0.48860
C         51.57786        47.90018         0.20580
C         52.80790        50.07899         0.42185
C         51.49355        50.69360         0.91136
C         52.69100        52.68887         1.69388
C         51.42072        51.98790         1.35153
C         52.75464        54.16853         1.34260
C         51.47169        54.73337         0.87262
C         52.65261        56.77316        -0.00303
C         51.53179        55.86049         0.10999
C         52.46898        58.23774        -0.34892
C         51.14708        58.87969        -0.89942
C         52.43012        61.03071        -1.22144
C         51.23832        60.41201        -0.92332
C         53.90193        46.41643         0.76707
C         55.21379        48.50575         0.95520
C         53.96340        47.81771         0.76989
C         55.27521        49.89672         1.07803
C         54.00502        50.62648         1.16853
C         55.40176        52.70064         0.17328
C         53.89589        51.82558         1.83085
C         55.29377        54.14175         0.61400
C         54.02072        54.88901         0.89972
C         55.07915        56.89455        -0.30397
C         53.88876        56.25529         0.30737
C         55.06388        58.33731        -0.55777
C         53.74107        59.01671        -0.59132
C         54.94430        61.03673        -1.45141
C         53.67083        60.23751        -1.50587
C         56.51979        50.60165         1.01510
C         57.78018        52.74880         0.62948
C         56.61313        51.97237         0.67743
C         57.75162        54.14709         0.22760
C         56.51153        54.80828         0.10412
C         57.62021        56.96114        -0.54412
C         56.40360        56.16543        -0.40614
C         57.52259        58.33514        -0.82113
C         56.22428        58.99648        -0.90364
C         57.39361        61.14311        -1.35096
C         56.17053        60.42508        -1.23879
C         58.92657        54.91097        -0.01264
C         60.05367        57.07150        -0.50185
C         58.88080        56.30137        -0.34497
C         59.98838        58.45343        -0.80507
C         58.71863        59.09856        -0.95256
C         59.86096        61.23881        -1.34543
C         58.65063        60.51024        -1.21577
C         61.17194        59.23412        -0.94707
C         61.09583        60.59787        -1.21413
O         47.89878        58.50822         2.34176
O         55.45161        56.18557        -1.56294
O         53.05275        59.08888         0.69413
O         34.76312        58.80010        -1.45048
O         52.66235        53.71566         2.73320
O         37.29169        52.47711         2.56532
O         48.53942        43.03468         1.69872
O         43.96066        55.85337         2.80774
O         50.41187        56.18386        -0.64242
O         43.12832        44.62711        -3.08941
O         42.79049        41.05613        -2.84961
O         44.87624        53.22911        -0.59003
O         55.03438        54.69694         1.96270
O         54.80591        52.38560        -0.85684
O         39.19389        57.09530         2.63992
O         38.85613        47.93614        -2.24098
O         46.78240        38.51046        -1.79738
O         47.58956        53.38196         2.61921
O         49.95798        54.95399         2.73614
O         41.52898        52.05201        -1.12614
O         30.52712        54.12719         0.57803
H         30.62978        54.34571         1.52672
O         51.06474        58.43557        -2.28194
H         50.24488        58.80111        -2.67559
O         52.89816        50.44539        -0.98134
H         53.64135        51.08348        -1.10337
O         45.26052        35.25939        -1.36664
H         44.70493        35.67517        -2.06033
O         41.73460        59.81892         2.39256
H         40.95082        60.29049         2.74289
O         44.41006        39.08076        -2.89086
H         44.15534        39.84720        -3.45707
O         50.23343        49.15115         2.16719
H         50.11494        49.82021         2.87334
O         54.80768        52.22306         2.74916
H         54.50554        53.09283         3.11487
O         42.35494        58.17640        -0.80233
H         43.11565        57.66037        -1.14157
O         32.97884        49.93041         0.63765
H         32.98988        50.07070        -0.33094
O         47.95334        49.08634        -2.03244
H         47.43685        49.91642        -2.19761
O         50.59169        49.34074        -1.46261
H         49.74538        49.33155        -1.97582
O         43.19652        45.97589        -3.57517
H         42.22773        46.21819        -3.65236
O         41.54632        56.50562         3.36551
H         40.61643        56.50463         3.69390
O         48.65198        46.81515         1.85599
H         48.70675        45.92822         2.27350
O         33.96433        60.50648         1.67514
H         33.91244        61.42767         2.00732
O         53.55915        59.71801        -2.87408
H         52.72021        59.19543        -2.92263
O         36.88260        49.98187         2.55272
H         37.29916        50.70780         3.07957
O         40.51593        46.21372        -3.11425
H         40.03784        47.04096        -3.36851
O         46.77902        51.51373        -1.51578
H         46.06111        52.19010        -1.62846
H         29.47680        56.29259        -0.10619
H         28.17780        58.42129        -0.26634
H         30.24414        62.20757        -0.57871
H         28.13953        60.89500        -0.54450
H         32.01713        52.12206         0.53190
H         31.48013        54.40869        -1.21627
H         32.68773        62.32240        -0.32877
H         34.44678        48.22266        -0.17272
H         34.07101        50.40317         2.31303
H         35.27439        62.36478        -0.32759
H         36.96273        44.07247        -0.93812
H         35.68630        46.17675        -0.75214
H         37.77348        62.34953        -0.45569
H         39.35531        39.85869        -1.06275
H         38.16453        41.99427        -1.11999
H         40.18230        62.32140        -0.56223
H         41.46122        35.79973         0.05935
H         40.46380        37.75364        -0.81132
H         42.62408        62.29327        -0.68777
H         44.42865        32.72321         2.18137
H         42.44892        33.80896         1.14857
H         45.08080        62.37974        -0.63022
H         46.64108        33.84726         2.17622
H         48.07460        35.70824         1.51517
H         47.58015        62.40213        -0.75289
H         49.53111        37.54864         0.88833
H         50.93150        39.54075         0.60017
H         50.11901        62.27317        -1.03505
H         52.21722        41.66887         0.69368
H         53.49717        43.73243         0.84654
H         52.46226        62.12813        -1.30555
H         54.81704        45.83210         0.94505
H         56.14451        47.91917         0.92459
H         54.90701        62.10768        -1.70383
H         57.45086        50.03097         1.16170
H         58.75102        52.29073         0.87244
H         57.35840        62.21863        -1.58145
H         59.90999        54.43106         0.09819
H         61.03721        56.59542        -0.37506
H         59.81941        62.31796        -1.55086
H         62.15122        58.74651        -0.83830
H         62.02105        61.18200        -1.31910
