         200
 CSIRO Nanostructure Databank - Neutral Graphene Oxide Data Set
C        -11.05851         0.73033         0.43562
C         -9.87699         1.48339         0.03700
C         -8.67745         0.72242        -0.28396
C         -7.44029         1.46474        -0.47551
C         -6.21720         0.76599        -0.56371
C         -5.00995         1.47564        -0.53011
C         -3.76722         0.73751        -0.20998
C         -2.48817         1.48223        -0.03947
C         -1.22828         0.72266        -0.12324
C          0.02374         1.48343        -0.00920
C          1.32099         0.74394        -0.08969
C          2.55745         1.48090        -0.42818
C          3.76858         0.74453        -0.46346
C          4.99991         1.45754        -0.54946
C          6.23776         0.71830        -0.48950
C          7.47570         1.44369        -0.33645
C          8.69709         0.70443        -0.16166
C          9.91774         1.42754         0.12132
C         11.11562         0.65264         0.42261
C         -9.84886         2.86364         0.05908
C         -8.65396         3.61836        -0.21721
C         -7.42835         2.88604        -0.47345
C         -6.21314         3.58649        -0.70435
C         -5.00494         2.87669        -0.67407
C         -3.69557         3.52907        -1.02092
C         -2.50672         2.97030        -0.25542
C         -1.21614         3.70461        -0.34927
C          0.02029         2.89880        -0.48338
C          1.29875         3.62844        -0.73232
C          2.56088         2.87844        -0.53860
C          3.78458         3.59472        -0.57468
C          4.99724         2.86915        -0.58949
C          6.28551         3.61675        -0.78384
C          7.49356         2.84306        -0.32502
C          8.70106         3.55744        -0.03209
C          9.90440         2.80547         0.19924
C         -8.60761         5.00698        -0.10694
C         -7.41449         5.76045        -0.34458
C         -6.22380         5.06489        -0.87451
C         -4.90357         5.85632        -1.04621
C         -3.66705         5.03244        -1.04789
C         -2.41444         5.58699        -1.31964
C         -1.16065         5.06642        -0.92740
C          0.05176         5.83002        -0.77171
C          1.28059         5.10875        -0.65360
C          2.52440         5.76029        -0.44150
C          3.75943         5.03793        -0.46676
C          4.99494         5.72538        -0.23093
C          6.22939         5.02953        -0.26163
C          7.44145         5.69223         0.05640
C          8.67105         4.95389         0.10040
C         -7.32880         7.11748        -0.06879
C         -6.09123         7.83699        -0.07861
C         -4.87933         7.26914        -0.54081
C         -3.66740         8.01973        -0.31282
C         -2.41180         7.64938        -0.84588
C         -1.16164         8.03600        -0.31976
C          0.04985         7.26453        -0.48964
C          1.27260         7.87284        -0.08106
C          2.51563         7.16741        -0.14466
C          3.73814         7.82158         0.16965
C          4.97324         7.11518         0.11084
C          6.20289         7.78322         0.41502
C          7.40839         7.07342         0.38526
C         -6.08005         9.13712         0.54306
C         -4.91805         9.78519         0.85789
C         -3.65317         9.22451         0.47910
C         -2.42994         9.84767         0.77660
C         -1.17840         9.25647         0.44836
C          0.05812         9.85392         0.77283
C          1.27095         9.21706         0.45625
C          2.51033         9.85716         0.74453
C          3.72652         9.20187         0.57881
C          4.98142         9.85387         0.86211
C          6.16355         9.18021         0.77511
C        -11.10810        -0.61777         0.38267
C        -10.00047        -1.42651        -0.23921
C         -8.70389        -0.66029        -0.29610
C         -7.48702        -1.45517        -0.56089
C         -6.18042        -0.70287        -0.69024
C         -4.92155        -1.43173        -0.44962
C         -3.70640        -0.72558        -0.35706
C         -2.47162        -1.40004        -0.25237
C         -1.21991        -0.66233        -0.17641
C          0.03825        -1.39194        -0.23057
C          1.27031        -0.71534        -0.24821
C          2.50922        -1.40908        -0.37830
C          3.74833        -0.69266        -0.42964
C          4.97722        -1.41370        -0.46183
C          6.22470        -0.68652        -0.43862
C          7.46582        -1.41420        -0.33688
C          8.69400        -0.69271        -0.24208
C         10.00432        -1.43288        -0.35956
C         11.15326        -0.68424         0.26199
C         -9.84095        -2.82422         0.31960
C         -8.65608        -3.51802         0.29833
C         -7.40992        -2.85738        -0.09560
C         -6.19714        -3.50377        -0.00770
C         -4.93838        -2.82757        -0.25700
C         -3.69724        -3.52663        -0.17991
C         -2.46671        -2.82466        -0.25681
C         -1.21565        -3.53958        -0.29379
C          0.01895        -2.82523        -0.31072
C          1.25591        -3.53393        -0.36544
C          2.49992        -2.83168        -0.40491
C          3.73519        -3.54868        -0.46315
C          4.97199        -2.83347        -0.46856
C          6.22612        -3.55908        -0.36487
C          7.45508        -2.82908        -0.25691
C          8.69507        -3.55279        -0.02532
C          9.90214        -2.87010         0.05419
C         -8.59741        -4.94134         0.57555
C         -7.40402        -5.63095         0.61281
C         -6.10932        -4.85385         0.65852
C         -4.89051        -5.64937         0.24828
C         -3.69053        -4.96516        -0.04998
C         -2.46987        -5.68331        -0.21186
C         -1.21815        -4.96241        -0.34920
C          0.01761        -5.65472        -0.41652
C          1.24863        -4.96095        -0.38845
C          2.50110        -5.67719        -0.41048
C          3.71136        -4.97557        -0.46353
C          4.99655        -5.73117        -0.69073
C          6.23059        -4.95817        -0.31129
C          7.44215        -5.67875        -0.02381
C          8.63933        -4.97160         0.13830
C         -7.33637        -7.05153         0.77158
C         -6.13133        -7.74729         0.70652
C         -4.89299        -7.04773         0.40487
C         -3.68142        -7.77827         0.23553
C         -2.49348        -7.09420        -0.10244
C         -1.27386        -7.87591        -0.36568
C          0.03444        -7.12252        -0.54136
C          1.29255        -7.83786        -0.27159
C          2.49696        -7.12478        -0.28315
C          3.73977        -7.82240        -0.08076
C          4.96260        -7.13599        -0.14605
C          6.18862        -7.81172         0.12560
C          7.39947        -7.09924         0.14091
C         -6.07292        -9.17408         0.87639
C         -4.89555        -9.86640         0.76926
C         -3.65636        -9.21167         0.44841
C         -2.45008        -9.91675         0.40602
C         -1.21938        -9.28618         0.07078
C          0.01455        -9.93122         0.14327
C          1.26131        -9.24568        -0.00711
C          2.48810        -9.91657         0.22477
C          3.71093        -9.23442         0.19866
C          4.95960        -9.90493         0.43788
C          6.14430        -9.22195         0.41573
O         10.30975        -1.48331        -1.81266
H          9.56244        -1.94865        -2.24637
O         -5.79080         5.56319        -2.18884
O          0.77416         1.22296         1.21796
O         -2.40994         6.82716        -1.97144
O          6.44608         3.75037        -2.25388
H          7.28589         4.23427        -2.40668
O        -10.40142        -1.63797        -1.64602
H         -9.59863        -1.91317        -2.13957
O          5.09240        -5.89535        -2.16454
H          4.30094        -6.40086        -2.44985
O          0.51411         3.04088        -1.85666
O         -5.89273        -4.55171         2.08769
H         -5.85886        -5.40914         2.56286
O         -3.42841         3.09853        -2.40621
H         -4.09046         3.53843        -2.98327
O         -6.89396        -1.20275        -1.88613
O         -0.70773        -7.63905        -1.70336
O         -1.98920         3.67961         0.90767
O         -3.28490         1.12377         1.14816
H         12.06735        -1.24928         0.49918
H         11.99090         1.19243         0.81576
H         10.82669         3.34934         0.45372
H          9.59883         5.49103         0.34749
H          8.34798         7.58811         0.63613
H          7.11216         9.69043         0.99812
H          4.96538        10.91335         1.15725
H          2.49668        10.89123         1.12061
H          0.07596        10.82631         1.28676
H         -2.43582        10.80925         1.31025
H         -4.94011        10.73941         1.40355
H         -7.04612         9.56967         0.84332
H         -8.22101         7.63958         0.31017
H         -9.51400         5.55382         0.19548
H        -10.76341         3.41680         0.32336
H        -11.91628         1.29825         0.82837
H        -12.01462        -1.15105         0.70687
H        -10.76503        -3.36275         0.58387
H         -9.54777        -5.48870         0.67664
H         -8.27407        -7.61317         0.90598
H         -7.00517        -9.71021         1.10807
H         -4.88506       -10.95570         0.92267
H         -2.44613       -10.98926         0.65400
H          0.04173       -10.99533         0.42419
H          2.47596       -10.99512         0.44254
H          4.94558       -10.98431         0.64906
H          7.09035        -9.74681         0.61407
H          8.33613        -7.63381         0.35890
H          9.56882        -5.51811         0.35668
H         10.83274        -3.43557         0.21623
