         598
 CSIRO Nanostructure Databank - Neutral Graphene Oxide Data Set
C         25.42594        69.42238        -6.05426
C         25.57798        70.86892        -6.13818
C         24.67720        71.54123        -6.99360
C         25.86259        73.63684        -6.77835
C         24.78699        72.90820        -7.26853
C         27.09788        65.40996        -3.59982
C         27.14649        66.75987        -3.97979
C         26.12907        67.25352        -4.84877
C         27.58329        69.79810        -4.17905
C         25.90254        68.64719        -5.00957
C         27.72712        71.05796        -4.79165
C         26.66652        71.63508        -5.57942
C         28.01893        73.71516        -5.59121
C         26.84366        73.00042        -5.97633
C         28.69953        61.40646        -1.17526
C         28.85341        62.75429        -1.55715
C         27.88354        63.42106        -2.34926
C         29.28364        65.42145        -2.42620
C         28.08105        64.74172        -2.79906
C         29.55841        66.73226        -3.04391
C         28.44350        67.49608        -3.73177
C         29.93268        69.60308        -3.74366
C         28.65880        68.97119        -3.85874
C         30.05752        70.97956        -4.03300
C         28.99391        71.68636        -4.63897
C         30.23221        73.82552        -4.49042
C         29.10594        73.08971        -4.97554
C         30.64433        57.22692         0.47180
C         30.69926        58.63258         0.34731
C         29.60986        59.34799        -0.18790
C         30.90021        61.43593        -0.03833
C         29.71577        60.72648        -0.46486
C         31.03215        62.82500        -0.36153
C         30.04018        63.46087        -1.14292
C         31.35711        65.54277        -1.06933
C         30.22457        64.81438        -1.57083
C         31.41542        66.99046        -1.32310
C         30.78774        67.47760        -2.59389
C         32.06952        69.71313        -2.32809
C         31.04622        68.87659        -3.06978
C         31.94366        71.20321        -2.45981
C         31.40355        71.68158        -3.81989
C         32.28624        73.96964        -3.16065
C         31.27819        73.22020        -3.79248
C         32.92075        52.88322         0.72234
C         32.92832        54.29379         0.83865
C         31.75235        55.06460         0.74402
C         33.04135        57.16095         1.06677
C         31.79557        56.47657         0.78407
C         33.07327        58.59591         1.11609
C         31.90286        59.33685         0.72538
C         33.08640        61.49955         1.25281
C         31.94562        60.74192         0.61326
C         33.25921        62.90404         0.72829
C         32.21704        63.54541         0.04268
C         33.41173        65.72741         0.31748
C         32.32386        64.94826        -0.26437
C         33.44534        67.11201         0.24406
C         32.44507        67.80112        -0.60092
C         33.49821        70.03098        -0.18922
C         32.80017        69.14450        -1.16108
C         33.51178        71.51494        -0.39694
C         32.71538        72.11007        -1.54844
C         34.15533        74.15012        -1.58271
C         33.07989        73.45133        -2.08919
C         35.35219        48.60432         0.37304
C         35.31737        49.97334         0.68786
C         34.11655        50.72504         0.63702
C         35.37629        52.82938         0.90041
C         34.11483        52.13251         0.77393
C         35.39411        54.23103         0.97465
C         34.18449        54.98277         1.00442
C         35.50330        57.03363         1.53070
C         34.22000        56.38718         1.17801
C         35.52429        58.56410         1.65775
C         34.29369        59.29914         1.34111
C         35.59806        61.38595         1.45210
C         34.37487        60.70982         1.29095
C         35.56202        62.86825         1.77068
C         34.43758        63.61447         1.07880
C         35.70658        65.73773         1.27844
C         34.50244        65.00518         0.93681
C         35.72751        67.14017         1.32542
C         34.39987        67.91271         1.12975
C         35.35766        70.25795         1.31035
C         34.53206        69.38050         0.66160
C         35.73004        71.59456         0.88452
C         34.64181        72.32991         0.19104
C         36.29120        74.19095        -0.18753
C         34.95234        73.67956        -0.43668
C         37.97957        44.77710        -1.28792
C         38.00887        46.20814        -0.84235
C         36.66860        46.68253        -0.38432
C         37.81427        48.51897         0.76419
C         36.59168        47.90783         0.25870
C         37.74216        49.87072         1.17513
C         36.55725        50.63302         1.02819
C         37.81164        52.73790         1.27675
C         36.59186        52.06961         1.07363
C         37.95349        54.14411         0.92671
C         36.66998        54.95488         0.84328
C         37.99459        57.04846         1.30338
C         36.76846        56.37130         1.21443
C         37.99342        58.48403         1.44212
C         36.82041        59.23702         1.51102
C         38.08606        61.36889         1.56310
C         36.83744        60.67721         1.49111
C         38.09258        62.81342         1.58841
C         36.88922        63.55613         1.57399
C         38.17013        65.63877         1.53746
C         36.91648        64.96552         1.47280
C         38.20820        67.06484         1.57023
C         36.98693        67.78364         1.59781
C         38.24107        69.95082         1.66213
C         37.10229        69.17332         1.89177
C         38.21079        71.40192         1.51285
C         37.00848        72.14230         1.08313
C         38.43658        74.18615         0.90338
C         37.21706        73.52006         0.61116
C         40.36752        40.68140        -2.47936
C         40.34964        41.98627        -1.96216
C         39.16976        42.75426        -1.97642
C         40.44071        44.82872        -1.21207
C         39.14796        44.08914        -1.48847
C         40.27619        45.72167         0.01909
C         39.12984        46.50738         0.15363
C         40.16777        48.39549         1.51105
C         39.02978        47.75862         0.89178
C         40.20005        49.80062         1.81071
C         38.90638        50.50333         1.80687
C         40.21916        52.71057         2.17265
C         38.91364        52.02844         1.91290
C         40.42961        54.09716         1.67366
C         39.24648        54.86324         1.15411
C         40.49312        56.94488         1.55301
C         39.26895        56.33005         1.29386
C         40.58003        58.40914         1.37667
C         39.27017        59.19626         1.29115
C         40.58012        61.26077         1.63400
C         39.32001        60.64193         1.55032
C         40.60940        62.72423         1.55857
C         39.34447        63.49387         1.60742
C         40.59431        65.61261         2.04501
C         39.36685        64.88950         1.66032
C         40.65603        67.07425         1.87962
C         39.45282        67.78403         1.68756
C         40.69870        69.90878         1.81211
C         39.47519        69.21720         1.64925
C         40.69438        71.34747         1.82016
C         39.45714        72.06014         1.58561
C         40.73980        74.18561         1.70679
C         39.54332        73.50138         1.42544
C         42.84577        36.51425        -3.58567
C         42.69522        37.62769        -2.72975
C         41.54941        38.42834        -2.79115
C         42.67108        40.28344        -1.42750
C         41.40322        39.71382        -2.12091
C         42.80299        41.77024        -1.47024
C         41.57416        42.60180        -1.42515
C         42.90405        44.55687        -0.57650
C         41.64932        43.92402        -1.08998
C         42.73493        45.56620         0.50333
C         41.42080        45.84411         0.86248
C         42.63428        48.26998         1.90663
C         41.35610        47.69148         1.84712
C         42.66022        49.70944         2.09261
C         41.40682        50.43709         2.12224
C         42.75719        52.60787         2.36553
C         41.46404        51.89309         2.39032
C         42.81175        54.02669         2.39178
C         41.64274        54.81164         2.10514
C         42.95337        56.87839         2.09331
C         41.69764        56.20676         1.92631
C         43.03392        58.32618         1.84184
C         41.80740        59.13306         1.73350
C         43.06008        61.24022         2.17554
C         41.82787        60.53197         1.76800
C         43.05982        62.62073         2.36521
C         41.91202        63.41157         1.90801
C         43.18939        65.54260         2.26940
C         41.84600        64.85355         2.29239
C         43.07980        67.03731         2.43200
C         41.88567        67.74803         2.09504
C         43.09037        69.88252         2.39025
C         41.89536        69.18224         2.07309
C         43.11781        71.31573         2.31485
C         41.90873        72.03476         2.01617
C         43.12772        74.17577         2.24592
C         41.94180        73.49143         2.01427
C         45.42426        34.12568        -4.90024
C         44.19714        34.75611        -4.69295
C         45.23835        36.20075        -3.02381
C         44.08057        35.81698        -3.75706
C         45.12002        37.21881        -1.97478
C         43.83420        37.98522        -1.84267
C         45.23302        40.01619        -1.06599
C         43.89676        39.41230        -1.31016
C         45.30348        41.48751        -0.84487
C         44.11726        42.36575        -1.08382
C         45.01581        44.01469         0.72975
C         44.18169        43.76169        -0.53125
C         45.13107        45.50491         1.02275
C         43.88396        46.19014         1.13559
C         45.09599        48.13814         2.04960
C         43.85472        47.50322         1.74105
C         45.03688        49.47685         2.79324
C         43.86138        50.33546         2.40543
C         45.25116        52.43707         2.94595
C         43.91825        51.77483         2.70468
C         45.29827        53.90598         2.60365
C         44.06279        54.71788         2.52498
C         45.40037        56.83625         2.66622
C         44.13627        56.13203         2.38999
C         45.44435        58.27641         2.77200
C         44.33953        59.08016         2.24664
C         45.39991        61.17631         3.06591
C         44.25674        60.51819         2.53465
C         45.39898        62.60211         3.39638
C         44.11206        63.30803         3.16689
C         45.25777        65.57279         3.84276
C         44.08571        64.82402         3.27959
C         45.27460        67.03464         3.57165
C         44.21525        67.72577         2.86761
C         45.38977        69.89131         3.23406
C         44.23363        69.16656         2.83199
C         45.44799        71.30361         3.08198
C         44.32024        72.00230         2.58677
C         45.52218        74.14092         3.04327
C         44.44382        73.46319         2.25516
C         46.56982        34.54666        -4.22549
C         47.69548        36.14777        -2.70188
C         46.50207        35.60801        -3.28478
C         47.70006        37.29505        -1.90071
C         46.39894        37.82801        -1.41428
C         47.64640        39.80733        -0.46853
C         46.36081        39.24305        -0.96958
C         47.64583        41.17697         0.11306
C         46.45472        42.05419        -0.10516
C         47.64436        44.07272         0.76076
C         46.37284        43.25131         0.83936
C         47.63427        45.41779         1.20090
C         46.35104        46.12311         1.34851
C         47.56824        48.08244         2.29036
C         46.32459        47.47942         1.81518
C         47.46771        49.27917         2.96829
C         46.36270        50.22134         2.84017
C         47.79476        52.34975         3.17009
C         46.50016        51.59468         2.92179
C         47.81317        53.85861         3.21324
C         46.59547        54.64554         2.81606
C         47.78092        56.79233         3.39404
C         46.54713        56.10218         2.99432
C         47.84075        58.26277         3.35057
C         46.59735        58.98552         3.20127
C         47.78015        61.11700         3.75016
C         46.57297        60.40838         3.31895
C         47.84046        62.59338         3.72369
C         46.56244        63.29498         3.75890
C         47.88065        65.43148         4.24359
C         46.56537        64.74181         4.16231
C         47.99505        66.76128         4.65629
C         46.20084        67.84974         4.19969
C         47.73706        69.82927         4.08008
C         46.48080        69.20016         3.83375
C         47.75444        71.25926         3.95997
C         46.62862        71.97996         3.53319
C         47.79391        74.15406         3.89829
C         46.59896        73.44556         3.54146
C         48.90684        37.93751        -1.53989
C         50.13382        39.85976        -0.61890
C         48.94006        39.19192        -0.87859
C         50.16723        41.30492        -0.33640
C         48.87647        42.01401        -0.03343
C         50.08809        44.08055         0.61361
C         48.86119        43.39791         0.51186
C         50.09344        45.40779         1.11107
C         48.88391        46.05647         1.45374
C         50.22644        48.18297         2.10535
C         48.88454        47.38445         2.14214
C         50.26848        49.66951         2.13983
C         49.32742        50.37502         2.90439
C         50.19391        52.50594         2.29097
C         49.10522        51.74920         2.77741
C         50.21227        53.94909         2.46263
C         49.08568        54.58236         2.92911
C         50.30356        56.79111         2.89099
C         49.11431        56.01567         3.25182
C         50.29543        58.19992         3.05088
C         49.07438        58.90636         3.37654
C         50.33859        61.12583         3.46930
C         49.12259        60.34743         3.70178
C         50.34456        62.53174         3.59174
C         49.07860        63.22586         3.78981
C         50.42485        65.41358         4.17666
C         49.13868        64.59828         4.40506
C         50.39193        66.93435         4.25728
C         49.09229        67.63997         4.36452
C         50.19686        69.79157         3.88541
C         48.99751        69.05958         4.20714
C         50.24486        71.26644         4.05901
C         48.97692        72.00565         4.45957
C         50.19329        74.17268         3.77901
C         48.99201        73.47457         4.05652
C         51.39342        42.06523        -0.08199
C         52.50759        44.22818         0.03978
C         51.34127        43.39931         0.25055
C         52.49923        45.55976         0.35120
C         51.45511        46.04777         1.34957
C         52.35120        48.29968         0.86320
C         51.36498        47.54856         1.41220
C         52.36412        49.78901         0.74447
C         51.24965        50.44792         1.47781
C         52.60431        52.55588         1.69656
C         51.31310        51.82871         1.75214
C         52.55821        54.02874         1.70601
C         51.42669        54.69189         2.16098
C         52.61342        56.86931         2.07213
C         51.43991        56.12941         2.36929
C         52.64602        58.26949         2.33255
C         51.48475        58.92601         2.78589
C         52.78971        61.14281         2.80511
C         51.55919        60.35875         3.16408
C         52.79856        62.62462         2.99361
C         51.55361        63.30546         3.40802
C         52.64875        65.49519         3.01636
C         51.58335        64.74019         3.50575
C         52.73856        66.96195         3.19049
C         51.58049        67.71853         3.80601
C         52.50237        69.84483         2.93542
C         51.41589        69.15586         3.51042
C         52.33082        71.29568         2.56831
C         51.42326        72.02584         3.53239
C         52.43461        74.17508         2.78559
C         51.35884        73.50452         3.37769
C         53.38435        46.46427        -0.35469
C         53.63631        49.03671        -0.94512
C         53.26739        47.80529        -0.14456
C         54.59227        49.93337        -0.15438
C         53.75146        50.41388         0.97728
C         55.16664        52.60466         1.03698
C         53.88661        51.83517         1.42592
C         54.86861        54.08792         0.80852
C         53.72860        54.74012         1.26153
C         54.67360        56.94523         0.76066
C         53.69934        56.19842         1.37777
C         54.87898        58.34498         1.13073
C         53.86750        59.04662         2.00849
C         54.74008        61.30395         1.25886
C         53.82277        60.53532         1.95393
C         54.74954        62.75901         1.29768
C         53.95275        63.39882         2.38176
C         54.59829        65.64242         1.39052
C         53.96868        64.90603         2.54352
C         54.62016        67.06593         1.54323
C         53.68011        67.73840         2.36757
C         54.71316        69.90394         1.78105
C         53.63596        69.15482         2.38993
C         54.71277        71.36359         1.79346
C         53.60691        72.04387         2.26504
C         54.60811        74.20264         1.64292
C         53.56055        73.49125         2.23956
C         55.63600        50.82193        -0.70687
C         57.17127        52.75597        -0.64725
C         55.92043        52.02460        -0.16200
C         57.12552        54.27400        -0.49387
C         55.97018        54.89438         0.23585
C         56.42316        57.06297        -1.15840
C         55.59981        56.27821        -0.18328
C         56.17105        58.55674        -1.08585
C         55.52709        59.19455         0.09981
C         56.63629        61.43094        -0.49190
C         55.77912        60.62839         0.43698
C         56.27710        62.85834        -0.65404
C         55.41514        63.52696         0.32471
C         56.25949        65.85896        -0.34721
C         55.37658        65.00496         0.41343
C         56.56976        67.15870         0.08043
C         55.66752        67.82114         0.95169
C         57.04630        69.92399         0.80870
C         55.76282        69.22142         1.16607
C         56.84166        71.40620         0.54891
C         55.81995        72.09037         1.17524
C         56.69688        74.28492         0.37222
C         55.73634        73.54865         1.06694
C         57.92401        55.11287        -1.42077
C         58.77421        57.21080        -2.30379
C         57.72460        56.46792        -1.65496
C         58.65118        58.50026        -2.87972
C         56.94717        59.44640        -1.95542
C         58.06330        61.49869        -2.61958
C         57.24222        60.76254        -1.69476
C         57.87134        62.91936        -2.62721
C         56.74029        63.40038        -1.83591
C         58.03834        65.95154        -2.10545
C         56.86152        65.48768        -1.60767
C         58.70139        67.05841        -1.31762
C         57.67629        67.87695        -0.52794
C         58.82704        69.94187        -1.07979
C         57.87997        69.18839        -0.21736
C         58.72546        71.42440        -1.14503
C         57.94863        72.13830        -0.08882
C         58.80168        74.36056        -1.11702
C         57.90173        73.67620        -0.17172
C         59.56515        59.51024        -3.15873
C         59.79806        61.70325        -4.29554
C         59.12511        60.88889        -3.40189
C         59.46977        63.15397        -4.52017
C         58.66513        63.78197        -3.39838
C         60.01285        65.95420        -3.71959
C         58.74232        65.25892        -3.22796
C         60.42197        67.25588        -3.10550
C         59.68084        67.87239        -2.14586
C         61.17862        70.04315        -2.23180
C         60.09852        69.17213        -1.47432
C         60.80604        71.45727        -2.64713
C         59.70760        72.20784        -1.97439
C         60.84461        74.34225        -2.51429
C         59.79303        73.68515        -1.83375
C         60.75466        63.85602        -4.83422
C         62.14181        65.83815        -5.03689
C         61.03640        65.17226        -4.48018
C         62.54995        67.17811        -4.62577
C         61.70472        67.88471        -3.53661
C         62.75870        70.05401        -4.15373
C         61.84155        69.34278        -3.41029
C         62.85680        71.51102        -4.02012
C         61.91865        72.21863        -3.25138
C         62.90245        74.35126        -3.89900
C         61.88037        73.65065        -3.22190
C         63.39693        68.02824        -5.44427
C         64.51906        70.15676        -5.89709
C         63.57274        69.38969        -5.17081
C         64.67527        71.54832        -5.70038
C         63.80790        72.23660        -4.78425
C         64.85407        74.36458        -5.42469
C         63.86050        73.66507        -4.68209
C         65.63776        72.29553        -6.42500
C         65.72794        73.68126        -6.26576
O         62.89634        67.16373        -3.16523
O         47.77573        53.09141         4.44878
O         54.81780        49.46838         1.22398
O         48.50086        56.27027         4.55480
O         43.73566        42.25400        -2.49347
O         45.64945        36.82886        -0.66505
O         40.01748        58.83092         0.08327
O         57.26813        54.74244         0.89906
O         51.41528        71.60385         4.92319
O         34.17743        73.54218         0.83807
O         49.34483        41.99564        -1.41764
O         55.22768        56.34545        -1.61196
O         53.51420        52.06070         2.81499
O         58.76145        66.02816        -4.49566
O         26.29762        69.36904        -3.86345
O         44.03315        58.72190         0.85043
O         57.16050        60.96800         0.79500
O         57.29936        58.87731        -3.16114
O         46.90167        67.35345         5.28956
O         56.13113        64.54664        -2.35187
O         52.65986        60.52646         4.13675
O         41.60348        39.79158        -0.63962
O         41.20870        46.33993         2.16091
O         54.06137        62.85714         3.73660
O         37.39112        54.53905        -0.36733
O         52.75955        67.42367         4.59319
O         52.36668        49.83409        -0.78136
O         50.75791        66.10908         5.42059
O         46.39738        42.23078        -1.54992
O         54.75878        58.99388        -1.14581
O         35.99721        69.79356         2.47012
O         43.55917        38.27306        -0.45476
O         59.58626        71.76144        -3.38121
O         35.45551        57.69726         2.83845
O         55.15605        58.55982         2.53572
O         31.04421        67.77674        -0.12844
O         60.67620        68.72701        -0.26160
O         43.44148        64.01837         4.28731
O         29.45940        66.74969        -4.49922
O         44.02579        44.81814        -1.49696
O         57.92987        70.58871        -2.06097
O         58.73075        72.92445         0.82988
O         41.54331        63.20626         0.50585
O         31.68020        67.73388        -3.71711
O         41.02609        65.17926         3.43395
O         47.61339        40.06372         1.01438
O         46.17675        54.19930         1.46277
O         49.78288        47.46765         3.29677
O         48.51902        49.67897         3.79570
O         45.58972        65.12583         5.17177
O         31.27462        71.88133        -1.36504
O         32.63463        70.91528         0.60759
O         44.42760        52.10941         4.10402
O         32.26694        71.40907        -4.86326
O         40.24054        54.28120         0.22637
O         33.43052        69.18422        -2.47767
O         46.49278        42.74858         2.15396
O         48.42352        60.60956         4.95920
O         40.66375        52.45544         3.52543
O         38.53006        51.19145         3.04285
O         35.26776        62.93165         3.20511
H         34.38640        62.49958         3.33187
O         43.82055        65.28941         0.98056
H         43.21768        65.58795         0.26749
O         44.77030        49.13397         4.19666
H         44.65827        49.98441         4.68157
O         38.31397        47.01408        -2.06494
H         38.28154        47.95953        -1.80152
O         40.71807        45.70521        -2.33347
H         39.90394        46.24869        -2.49306
O         51.89806        45.60319         2.66738
H         51.27612        46.00083         3.32089
O         57.44385        52.42742        -2.01161
H         56.75678        52.83334        -2.57904
O         58.58128        63.27392        -5.70041
H         58.37685        64.23290        -5.79131
O         48.90990        71.98667         5.91012
H         49.83423        72.06781         6.23734
O         32.71681        61.67819         2.67817
H         31.86693        62.16852         2.70473
O         51.57181        71.31228         1.30164
H         52.16360        70.97721         0.59464
O         56.06683        52.52281         2.15974
H         55.51370        52.55275         2.97312
O         62.25673        70.26319        -1.29746
H         62.08577        69.59972        -0.56267
O         44.18135        43.44968         1.76947
H         44.84081        43.07547         2.42873
O         57.86477        69.89690         2.02813
H         57.34248        70.29436         2.75686
O         44.91239        73.51801         0.83598
H         44.22652        73.07314         0.29269
O         49.09907        64.26757         5.82580
H         49.57537        64.98781         6.30582
O         33.76482        67.95239         2.43869
H         34.30059        68.55469         3.00167
O         54.88527        65.21619         3.63808
H         54.75482        64.51771         4.32269
O         59.52674        66.41226        -0.31409
H         60.11623        67.15122         0.03601
H         25.98657        74.69648        -7.04290
H         28.08752        74.78361        -5.84794
H         30.14902        74.92573        -4.46668
H         32.48633        74.99973        -3.49811
H         34.44618        75.10373        -2.04943
H         36.58596        75.14517        -0.64984
H         38.52870        75.25450         0.65942
H         40.76166        75.28209         1.62166
H         43.12966        75.27615         2.21861
H         45.54186        75.24169         3.05073
H         47.81330        75.24466         3.74196
H         50.13381        75.26213         3.62465
H         52.39851        75.27228         2.70748
H         54.55920        75.30118         1.60875
H         56.50667        75.34907         0.16580
H         58.76867        75.46080        -1.15350
H         60.89425        75.44095        -2.46826
H         62.92577        75.45051        -3.86191
H         64.91645        75.45879        -5.33742
H         24.93590        68.92785        -6.90680
H         23.85427        70.96892        -7.44580
H         24.03894        73.39474        -7.90945
H         26.19912        64.83471        -3.87182
H         25.50507        66.52202        -5.38564
H         27.80071        60.85343        -1.48549
H         26.97018        62.88171        -2.64092
H         29.71232        56.70102         0.21704
H         28.69781        58.80545        -0.47704
H         31.96181        52.36189         0.58606
H         30.78818        54.56378         0.57244
H         34.42834        48.09322         0.06494
H         33.16629        50.20256         0.45217
H         37.00781        44.30463        -1.49713
H         35.76172        46.21540        -0.79620
H         39.50165        40.32819        -3.05993
H         38.22573        42.28887        -2.29779
H         41.98933        36.21326        -4.20746
H         40.79739        38.18484        -3.55775
H         45.49349        33.30028        -5.62234
H         43.30816        34.43283        -5.25257
H         47.53763        34.06594        -4.42603
H         48.65968        35.70855        -3.00089
H         49.85743        37.48863        -1.86785
H         51.08867        39.34851        -0.82048
H         52.36462        41.59572        -0.29952
H         53.31998        43.81658        -0.57961
H         54.02045        46.05384        -1.15352
H         53.86272        48.89465        -2.02119
H         56.24235        50.46657        -1.55652
H         58.03441        52.36927        -0.04494
H         58.80653        54.63078        -1.86898
H         59.76093        56.72424        -2.34081
H         60.64430        59.30010        -3.17001
H         60.61110        61.27484        -4.90030
H         61.48914        63.31095        -5.44635
H         62.73021        65.32589        -5.81376
H         63.86410        67.59477        -6.34178
H         65.16752        69.64625        -6.62565
H         66.31053        71.77557        -7.12182
H         66.48497        74.24171        -6.83192
