         344
 CSIRO Nanostructure Databank - Neutral Graphene Oxide Data Set
C          1.55414         2.01710        -1.97084
C          1.48526         3.44837        -1.87878
C          2.59319         1.32162        -1.44866
C          2.53563         4.18918        -1.36420
C          1.30047         6.35844        -1.44732
C          1.25076         7.74410        -1.27137
C          2.49398         5.64496        -1.25926
C          2.39668         8.47401        -0.94987
C          1.36637        10.70376        -1.58163
C          1.41984        12.05392        -1.69461
C          2.27453         9.95481        -0.63801
C          2.46022        12.83795        -1.07397
C          1.27735        15.03190        -1.26530
C          1.26502        16.42961        -1.08146
C          2.41980        14.24600        -1.00373
C          2.42090        17.15968        -0.78458
C          2.47317        18.57782        -0.65043
C          3.69085         2.01033        -0.68805
C          3.73105         3.50969        -0.90973
C          5.03652         1.38169        -0.91574
C          4.87146         4.20946        -0.58052
C          3.67447         6.36005        -0.90096
C          3.62733         7.78228        -0.77462
C          4.89516         5.65534        -0.61598
C          4.82776         8.49833        -0.45101
C          3.59606        10.66322        -0.50780
C          3.61884        12.09894        -0.56414
C          4.80027         9.93131        -0.33675
C          4.78097        12.77650        -0.21992
C          3.61398        14.96761        -0.39818
C          3.73260        16.42216        -0.87877
C          4.91867        14.20763        -0.66014
C          4.88376        17.13120        -0.22388
C          3.66362        19.23773        -0.42853
C          4.89178        18.51691        -0.15378
C          6.17568         2.05844        -0.58408
C          6.05462         3.45630        -0.00269
C          7.45837         1.42878        -0.62041
C          7.34812         4.23375        -0.05569
C          6.07828         6.36189        -0.32256
C          6.05863         7.80357        -0.28602
C          7.32294         5.64643        -0.07752
C          7.25427         8.53749        -0.05185
C          5.99679        10.61264         0.01547
C          5.95796        12.07436         0.37382
C          7.21598         9.93123         0.15529
C          7.28516        12.72878        -0.10677
C          6.12045        14.92052        -0.07750
C          6.00551        16.34656         0.39777
C          7.29037        14.23790         0.05688
C          7.32902        17.07265         0.38531
C          6.10692        19.21027         0.18789
C          7.31240        18.53140         0.38160
C          8.62290         2.10552        -0.25565
C          8.57571         3.53979         0.00233
C          9.88023         1.44737        -0.26402
C          9.79121         4.24926         0.20383
C          8.54573         6.35991         0.06307
C          8.58926         7.85556        -0.16151
C          9.74725         5.66660         0.23769
C          9.69859         8.56907         0.58962
C          8.34444        10.62499         0.90417
C          8.45435        12.17174         0.73863
C          9.68255         9.92049         0.77614
C          9.78694        12.74317         0.22885
C          8.53651        14.92085         0.40632
C          8.49530        16.36495         0.54964
C          9.74649        14.23675         0.48658
C          9.72999        17.07838         1.03370
C          8.55918        19.22107         0.45499
C          9.76991        18.53852         0.64390
C         11.07389         2.12444         0.02087
C         11.04978         3.53652         0.31742
C         12.32796         1.45175        -0.02562
C         12.22935         4.19581         0.72927
C         11.04134         6.44361         0.32187
C         10.83251         7.74036         1.11970
C         12.13693         5.62636         0.97047
C         12.13018         8.50993         1.27955
C         10.92321        10.66109         1.01508
C         10.97962        12.05008         0.84448
C         12.14960         9.94971         1.22155
C         12.20956        12.76102         0.94287
C         10.99764        14.92745         0.69322
C         11.01350        16.33117         0.77305
C         12.22932        14.19048         0.79730
C         12.24059        17.03335         0.79369
C         11.00978        19.18979         0.62646
C         12.24160        18.47932         0.73549
C         13.52800         2.12399         0.21208
C         13.50449         3.50763         0.67540
C         14.77664         1.43833         0.10643
C         14.75438         4.12112         0.90633
C         13.04227         6.33148         1.71897
C         13.24426         7.76262         1.58303
C         14.93254         5.31150         1.64331
C         14.61362         8.35090         1.57881
C         13.36476        10.64111         1.36051
C         13.43075        12.06177         1.20827
C         14.61519         9.87047         1.50450
C         14.68013        12.76474         1.16545
C         13.46618        14.88421         0.85947
C         13.46999        16.31424         0.80326
C         14.70619        14.16091         0.97936
C         14.70533        17.02606         0.76089
C         13.46932        19.15533         0.68574
C         14.69381        18.45134         0.67809
C         16.00879         2.10494         0.18302
C         15.98292         3.61635         0.19210
C         17.23648         1.43928         0.13537
C         17.26782         4.27241         0.65912
C         16.00692         6.18555         1.51230
C         15.87529         7.58521         2.07174
C         17.27280         5.63134         1.10557
C         17.14587         8.40087         1.82392
C         15.84820        10.60581         1.91619
C         15.96175        12.06963         1.52225
C         17.01453         9.72043         2.10748
C         17.20886        12.68217         0.85197
C         15.96299        14.89119         0.89298
C         15.94526        16.31480         0.74220
C         17.20491        14.20796         0.82850
C         17.15699        17.03584         0.51986
C         15.92802        19.14456         0.50400
C         17.11867        18.46245         0.37586
C         18.47345         2.13334         0.28300
C         18.47327         3.56220         0.55994
C         19.68534         1.44304         0.24602
C         19.70657         4.24503         0.77249
C         18.49584         6.32517         1.32548
C         18.53889         7.73294         1.94121
C         19.70512         5.63958         1.09100
C         19.76383         8.53210         1.35091
C         18.87160        10.84738         1.65779
C         18.58422        12.09741         1.14068
C         19.86483         9.93429         1.18984
C         19.80853        12.85313         0.73989
C         18.38096        14.91344         0.48701
C         18.38197        16.32309         0.35885
C         19.58774        14.15396        -0.02801
C         19.61526        17.04125         0.10411
C         18.35008        19.24768        -0.00535
C         19.62990        18.45271         0.01611
C         20.92709         2.11278         0.43156
C         20.93710         3.52716         0.66377
C         22.14643         1.40662         0.36837
C         22.18050         4.20512         0.80840
C         20.95982         6.36362         1.08405
C         20.92749         7.76885         1.01637
C         22.20623         5.64027         0.96891
C         22.21127         8.39395         0.46759
C         20.86964        10.48211         0.19445
C         20.89984        12.00537         0.10158
C         22.23350         9.89849         0.42934
C         22.18231        12.75722        -0.00293
C         20.90290        14.91825         0.03986
C         20.86571        16.33651         0.04978
C         22.13265        14.23971         0.10224
C         22.09340        17.05659         0.03021
C         20.83214        19.15191        -0.11867
C         22.08231        18.49340        -0.09624
C         23.37882         2.06470         0.52845
C         23.38547         3.47010         0.77618
C         24.60900         1.36295         0.27072
C         24.65679         4.17221         0.96931
C         23.44434         6.31810         0.98362
C         23.42044         7.81097         1.18803
C         24.68021         5.63995         0.89769
C         24.71089         8.51084         0.82558
C         23.41716        10.59090         0.35549
C         23.46473        12.04792         0.17321
C         24.67252         9.86363         0.54980
C         24.63623        12.77130         0.20175
C         23.36472        14.95055         0.16879
C         23.32044        16.35915         0.14541
C         24.64671        14.23283         0.20546
C         24.55540        17.14826         0.27418
C         23.29741        19.20316        -0.26978
C         24.54146        18.55952        -0.16305
C         25.82773         2.00686         0.19717
C         25.95419         3.40857         0.64312
C         26.99262         1.37394        -0.34842
C         27.11457         4.19775         0.22435
C         25.91897         6.32509         0.73682
C         25.95219         7.76572         0.76819
C         27.11914         5.60872         0.37144
C         27.17332         8.44114         0.56516
C         25.91598        10.64548         0.61985
C         25.92814        12.01728        -0.01493
C         27.22252         9.90047         0.73429
C         27.21477        12.77120         0.22716
C         25.84531        14.92090         0.24752
C         25.87478        16.39900         0.30800
C         27.18189        14.26099         0.50960
C         27.07454        17.11177        -0.16401
C         25.76436        19.19286        -0.43706
C         26.99460        18.48758        -0.47815
C         28.15779         2.07370        -0.57454
C         28.23748         3.50636        -0.31490
C         29.29353         1.42326        -1.20905
C         29.40515         4.21178        -0.63724
C         28.28823         6.33912        -0.03556
C         28.32745         7.75585         0.07443
C         29.42281         5.63431        -0.56324
C         29.48677         8.48706        -0.38084
C         28.54845        10.62747         0.58103
C         28.39373        12.09852         0.22284
C         29.57231         9.89929        -0.24964
C         29.69190        12.81438         0.10264
C         28.36093        15.02564        -0.06895
C         28.30295        16.38055        -0.30926
C         29.67033        14.32905        -0.08056
C         29.58508        17.16499        -0.51781
C         28.15689        19.14888        -1.03175
C         29.35561        18.50441        -1.18570
C         30.45604         2.06713        -1.42657
C         30.68628         3.46839        -0.93397
C         31.59700         4.26776        -1.82557
C         30.52511         6.35632        -1.10822
C         30.56085         7.77798        -1.01339
C         31.54418         5.61816        -1.83260
C         31.66669         8.52983        -1.50775
C         30.70087        10.61598        -0.69184
C         30.81703        12.05856        -0.48919
C         31.73237         9.89363        -1.36055
C         31.92779        12.77352        -0.90742
C         30.80802        14.95947        -0.77484
C         30.70436        16.35667        -1.14653
C         31.92729        14.18586        -1.03848
C         31.65904        16.99860        -1.90246
C         30.45044        19.11822        -1.89070
C         31.55856        18.39001        -2.22903
O         26.54700        10.45796         1.92338
O         30.02425        13.70779         1.21719
O         14.88694         9.03248         0.31513
O         18.09486        10.36031         2.70272
O         13.92703         5.65528         2.55764
O         21.38094        12.36650        -1.23583
O         25.52114         3.62727         2.02262
O         15.84574        11.67125         2.92526
O         25.27320        16.94428         1.53710
O          7.88781        10.38182         2.24282
O          8.97799         8.01218        -1.57625
H          9.90731         7.67331        -1.65054
O          3.39616         1.82130         0.75699
H          2.50707         2.20400         0.91884
O         29.13803        10.67072         1.91420
H         28.40821        10.90425         2.53297
O          5.81459        12.11473         1.81397
H          6.47942        11.44987         2.18236
O          5.66100        16.27021         1.83327
H          6.29073        15.64414         2.25308
O         31.39543         3.33169         0.35254
H         31.52732         4.23693         0.70660
O          7.36969        12.34008        -1.48358
H          8.26756        12.56640        -1.82177
O         15.81950         4.02385        -1.21662
H         16.61002         3.70733        -1.70331
O         18.47231        20.42503         0.80816
H         18.62713        20.14215         1.73254
O         27.36724        14.35020         1.96227
H         28.32247        14.16093         2.13441
O          5.75541         3.27566         1.41866
H          4.94288         2.71047         1.46310
O         20.42841         9.98979        -1.11741
H         20.81007        10.61371        -1.77957
O          3.41813        14.96907         1.02805
H          2.65897        15.55159         1.23747
O          1.64841        10.04333         0.69498
H          2.26794         9.64232         1.34128
O         15.76625         7.49543         3.51394
H         16.61504         7.12939         3.85004
O          8.36702        12.75588         2.05351
H          8.23242        11.97915         2.67135
O         18.79510         7.54279         3.36086
H         18.85582         8.43910         3.75933
O          5.13675        14.06005        -2.08882
H          4.90746        14.91757        -2.52391
O          4.02734        16.41624        -2.33083
H          4.07147        17.35350        -2.61799
O         23.21562         8.05219         2.60943
H         24.00245         7.72178         3.09162
O         10.39414         7.31232         2.44382
H          9.96892         8.07827         2.88670
O         25.93679        11.72130        -1.45971
H         25.75998        12.55603        -1.94261
O         17.00550        12.30131        -0.55473
H         17.67846        12.79663        -1.09097
O         20.40740        13.24195         2.03071
H         19.69963        13.61615         2.59780
O         30.05492        17.47587         0.83808
H         30.87786        18.00120         0.74910
O         11.44011         6.81413        -1.03278
H         11.69734         5.99548        -1.50718
O         22.29324         7.97657        -0.92498
H         21.54249         8.42725        -1.38380
O         19.23794        13.85732        -1.41095
H         20.02167        13.40199        -1.81007
O          9.60170        17.08266         2.50536
H         10.40284        17.51845         2.86650
O          9.95603        12.54181        -1.21124
H         10.84923        12.86458        -1.45543
H          0.73410         1.48843        -2.47866
H          0.58738         3.94640        -2.26812
H          2.61966         0.22364        -1.50959
H          0.37241         5.82701        -1.69792
H          0.28409         8.25651        -1.37212
H          0.59243        10.14462        -2.12714
H          0.67623        12.57077        -2.31964
H          0.34332        14.54220        -1.57727
H          0.31097        16.96635        -1.19851
H          1.53747        19.15201        -0.72923
H          5.08670         0.33779        -1.26192
H          3.67301        20.33442        -0.34970
H          7.51881         0.37215        -0.92375
H          6.10051        20.31068         0.19276
H          9.91629         0.37437        -0.50596
H          8.57439        20.31200         0.30352
H         12.34929         0.38580        -0.29841
H         11.04527        20.27896         0.46815
H         14.76535         0.34723        -0.04330
H         13.48106        20.25262         0.60908
H         17.25583         0.34381         0.02635
H         15.91903        20.23998         0.40730
H         19.68551         0.35707         0.06943
H         18.19968        19.62012        -1.05886
H         22.13259         0.32617         0.16202
H         20.80108        20.24752        -0.20811
H         24.54437         0.30441        -0.02416
H         23.26132        20.27847        -0.49939
H         26.93224         0.31071        -0.62620
H         25.75862        20.25329        -0.73092
H         29.16736         0.37762        -1.52941
H         28.03311        20.17082        -1.42331
H         31.29905         1.54851        -1.90759
H         32.38187         3.73935        -2.38712
H         32.27422         6.17504        -2.43655
H         32.50137         8.01574        -2.00159
H         32.61347        10.42131        -1.74822
H         32.82198        12.24535        -1.26494
H         32.82301        14.65209        -1.47239
H         32.52326        16.44274        -2.29359
H         30.34845        20.16406        -2.21646
H         32.37106        18.85478        -2.80445
