         621
 CSIRO Nanostructure Databank - Neutral Graphene Oxide Data Set
C          5.87933        31.66481         0.95591
C          6.00250        32.95475         1.32719
C          8.21255        27.36277        -0.29116
C          8.10798        28.77633        -0.32886
C          7.00105        29.47290         0.16281
C          8.22504        31.70386        -0.05124
C          6.94051        30.94362         0.20032
C          8.48833        32.99270         0.66273
C          7.30025        33.68491         1.29218
C          8.55328        35.82291         1.06996
C          7.37946        35.13955         1.37473
C          8.60643        37.24776         1.18422
C         10.72319        23.10519        -0.33356
C         10.67593        24.51065        -0.54495
C          9.47269        25.23482        -0.36792
C         10.60092        27.29667        -1.02523
C          9.40924        26.63068        -0.58287
C         10.53814        28.76836        -1.19963
C          9.28054        29.53886        -0.83001
C         10.65809        31.56178        -0.31248
C          9.42544        30.95469        -0.42051
C         10.87264        33.02083        -0.15355
C          9.70531        33.75913         0.31163
C         10.89791        35.90155         0.19180
C          9.73496        35.12837         0.56798
C         10.90846        37.27705         0.33019
C          9.74495        37.97571         0.84744
C         10.88711        40.17305         0.72291
C          9.74022        39.41178         0.93010
C         10.87969        41.58848         0.68372
C         13.19328        18.81335        -0.09118
C         13.16965        20.23788        -0.25387
C         11.96037        20.96440        -0.18375
C         13.14942        23.04232        -0.73530
C         11.93102        22.36302        -0.40597
C         13.09029        24.42672        -1.20791
C         11.85569        25.20334        -0.97959
C         13.05117        27.27412        -1.78087
C         11.81464        26.59210        -1.20132
C         12.95650        28.79786        -1.68870
C         11.83396        29.44448        -0.94573
C         13.75144        31.76797        -0.50888
C         11.79987        30.69611        -0.38095
C         13.29941        33.06582        -1.13348
C         12.06319        33.69449        -0.44391
C         13.30486        35.96868        -0.72505
C         12.03086        35.18506        -0.45864
C         13.35912        37.40547        -0.36575
C         12.03387        38.13112        -0.22319
C         13.33326        40.20968         0.10534
C         12.18908        39.41163         0.64339
C         13.17641        41.59809        -0.23835
C         12.00178        42.34383         0.27550
C         13.21457        44.52087         0.04464
C         12.04349        43.74472         0.31601
C         13.21490        45.90827         0.26927
C         15.69437        14.54038         0.15578
C         15.64803        15.93316         0.10644
C         14.41185        16.66298         0.03991
C         15.66608        18.77541        -0.29757
C         14.38016        18.06302        -0.08604
C         15.67204        20.26271        -0.47454
C         14.38425        20.96789        -0.44374
C         15.65293        23.07878        -0.79001
C         14.38486        22.36033        -0.66736
C         15.66420        24.42906        -1.05115
C         14.43362        25.14945        -1.45692
C         15.73673        27.39115        -1.16677
C         14.40324        26.65120        -1.28916
C         15.89355        28.87809        -1.23307
C         15.10147        29.68821        -0.44028
C         15.86107        31.74286        -1.70001
C         14.88391        31.08688        -0.81642
C         15.82173        33.24256        -1.64305
C         14.57720        33.90426        -1.15896
C         15.84796        35.96064        -0.87285
C         14.59222        35.24563        -0.90159
C         15.81283        37.37273        -0.63967
C         14.55069        38.07138        -0.40585
C         15.77019        40.30428        -0.59065
C         14.65815        39.51835         0.06334
C         15.75229        41.69098        -0.64932
C         14.45877        42.40721        -0.57972
C         15.64501        44.55367        -0.46325
C         14.45398        43.85219        -0.32506
C         15.60188        46.03089        -0.40297
C         14.39224        46.70916         0.13888
C         15.69475        48.82488         0.53828
C         14.42861        48.06298         0.42668
C         15.72145        50.29279         0.65713
C         18.19557        10.11379         0.18505
C         17.86155        11.41860         0.72964
C         16.94618        12.29965         0.17154
C         18.21959        14.52137         0.09354
C         16.94042        13.77371         0.54287
C         18.16012        15.99706         0.15622
C         16.87540        16.70654         0.18490
C         18.13817        18.84201         0.18778
C         16.91879        18.09106         0.08986
C         18.07171        20.32754         0.41748
C         16.90954        21.03863        -0.23371
C         18.14417        23.17018        -0.34293
C         16.91027        22.39436        -0.45765
C         18.19753        24.48992        -0.72359
C         16.96023        25.12681        -1.23119
C         18.32806        27.29711        -1.53728
C         16.98244        26.60018        -1.47567
C         18.36793        28.75410        -1.88193
C         17.06332        29.51003        -1.92973
C         18.40576        31.74301        -1.73589
C         17.13482        31.00472        -1.95557
C         18.34331        33.19795        -1.52992
C         17.13237        33.91026        -1.48880
C         18.32622        35.97033        -0.87725
C         17.09097        35.29265        -1.10160
C         18.28003        37.38979        -0.52534
C         17.00099        38.09321        -0.63252
C         18.29732        40.28553        -1.08447
C         16.98440        39.54058        -0.88001
C         18.23670        41.78010        -1.06486
C         16.94808        42.47623        -0.80840
C         18.14171        44.65280        -0.66482
C         16.90314        43.87883        -0.69934
C         18.15891        46.02044        -0.53537
C         16.89779        46.77888        -0.46876
C         18.21534        48.90844        -0.08739
C         16.97857        48.13019         0.16845
C         18.10927        50.36723        -0.03770
C         16.88794        51.03070         0.48272
C         18.19454        53.14913         0.71585
C         16.96716        52.43701         0.69117
C         18.23697        54.55878         0.95121
C         20.75600         5.97474         0.56799
C         20.76209         7.39153         0.46663
C         19.57743         8.11605         0.12461
C         20.77051        10.28693         0.17117
C         19.48092         9.52316         0.17836
C         20.83007        11.74384         0.39147
C         19.79902        12.57856        -0.25011
C         20.61098        14.56444         0.90614
C         19.55237        13.90384         0.36660
C         20.56287        16.03734         1.12185
C         19.32701        16.75210         0.68640
C         20.59288        18.89600         0.59902
C         19.36609        18.20399         0.45066
C         20.57886        20.32718         0.38572
C         19.39818        21.02244         0.23487
C         20.62282        23.26109         0.08728
C         19.33155        22.52999         0.34368
C         20.61365        24.61596        -0.09477
C         19.41448        25.29950        -0.56628
C         20.88939        27.30017        -1.02094
C         19.50723        26.62259        -0.95026
C         20.88214        28.82725        -1.27477
C         19.64168        29.55591        -1.73667
C         20.90822        31.75560        -1.70361
C         19.57949        31.04162        -1.62487
C         20.81549        33.20595        -1.27623
C         19.58706        33.89087        -1.26485
C         20.81263        36.02446        -0.84405
C         19.56393        35.30193        -0.98008
C         20.84061        37.44115        -0.78755
C         19.60174        38.17953        -0.57312
C         20.79822        40.33024        -0.75231
C         19.57503        39.62153        -0.82309
C         20.79042        41.74958        -0.57849
C         19.52541        42.49650        -0.80042
C         20.66409        44.63451        -0.07569
C         19.40143        43.91327        -0.36603
C         20.73758        46.09452        -0.37469
C         19.42518        46.80764        -0.56929
C         20.68768        48.99100        -0.30916
C         19.41585        48.27227        -0.33721
C         20.67256        50.36063        -0.08750
C         19.42900        51.13896        -0.04628
C         20.67474        53.15819         0.78396
C         19.44656        52.50043         0.50265
C         20.66918        54.49165         1.32410
C         19.41754        55.23932         1.22589
C         20.21709        57.49026         1.90354
C         19.38728        56.70478         1.14683
C         20.65226        58.84334         1.73205
C         23.24928         3.18634         0.95682
C         22.02818         3.85491         1.05377
C         22.94253         6.08177         1.58229
C         21.87429         5.28705         1.08799
C         23.10320         7.44706         1.27755
C         21.96813         8.10423         0.76242
C         23.18724        10.28314         1.09386
C         22.04886         9.54146         0.50844
C         23.12189        11.65096         1.27997
C         21.92271        12.37475         0.94464
C         23.10774        14.57775         1.37608
C         21.80768        13.80475         1.43515
C         23.04418        16.06702         1.51517
C         21.82254        16.81058         1.13464
C         23.08565        18.94614         0.97950
C         21.82628        18.19245         0.91484
C         23.12137        20.33981         0.71713
C         21.88898        21.01843         0.26894
C         23.13463        23.22956         0.54944
C         21.90356        22.52734         0.18461
C         23.03189        24.68051         0.78487
C         21.77494        25.41813         0.38734
C         23.08262        27.63579         0.21562
C         21.71612        26.94787         0.23399
C         23.17701        28.95542        -0.19941
C         22.03047        29.64759        -0.78193
C         23.27069        31.77531        -0.89397
C         22.05358        31.01365        -1.02805
C         23.27845        33.17494        -0.97416
C         22.02516        33.90679        -1.01661
C         23.32060        36.02419        -0.50471
C         22.03726        35.29874        -0.84547
C         23.28307        37.47432        -0.91295
C         22.07583        38.17663        -0.89764
C         23.25440        40.37141        -0.71658
C         22.05102        39.62915        -0.80488
C         23.22438        41.73934        -0.35703
C         21.98123        42.41840        -0.26339
C         23.20382        44.63954         0.23398
C         21.94352        43.86509         0.07671
C         23.23358        46.10164        -0.06689
C         21.96130        46.85592        -0.08680
C         23.20438        48.95784        -0.20079
C         21.97061        48.25822        -0.24368
C         23.21220        50.40266        -0.35274
C         21.90135        51.16523        -0.13959
C         23.14595        53.12884         0.79650
C         21.92440        52.51309         0.47375
C         23.14119        54.34911         1.51916
C         21.91914        55.01789         1.78672
C         23.10936        57.09838         2.51007
C         22.00015        56.29688         2.46659
C         23.00344        58.56965         2.89875
C         21.87215        59.35551         2.18743
C         23.24178        61.40688         2.38774
C         22.04923        60.76130         2.06270
C         24.54411         3.75047         0.93128
C         25.77477         5.98244         1.08057
C         24.80507         5.04742         1.43393
C         25.65529         7.40636         1.31732
C         24.39444         8.12165         1.39248
C         25.61521        10.28024         1.44902
C         24.40026         9.53579         1.37292
C         25.60577        11.70481         1.57087
C         24.28995        12.40599         1.87913
C         25.54358        14.63542         1.76785
C         24.27580        13.90054         1.54847
C         25.60298        16.09475         1.53962
C         24.32648        16.84438         1.61472
C         25.53137        18.97601         1.23744
C         24.31429        18.28491         1.26465
C         25.55935        20.38568         1.02506
C         24.33258        21.08057         0.78617
C         25.57491        23.27088         0.91462
C         24.33411        22.53867         0.72936
C         25.59603        24.70400         1.00364
C         24.29783        25.44976         1.04381
C         25.56710        27.68890         0.85274
C         24.25284        26.95744         0.83372
C         25.60180        29.04419         0.26270
C         24.45415        29.68028        -0.15197
C         25.69999        31.74942        -0.77109
C         24.51295        31.06755        -0.63082
C         25.70830        33.11382        -1.45409
C         24.51607        33.92177        -1.02754
C         25.82947        36.03055        -1.05836
C         24.57317        35.29748        -0.95437
C         25.83273        37.45342        -0.95934
C         24.54905        38.17076        -1.13035
C         25.81814        40.34932        -0.68717
C         24.53789        39.70705        -1.03453
C         25.81456        41.81561        -0.48525
C         24.49862        42.51678        -0.32541
C         25.79857        44.63202         0.48901
C         24.51042        43.89379         0.27348
C         25.81077        46.11274         0.36198
C         24.53500        46.82200         0.04870
C         25.80176        48.95431        -0.11040
C         24.48561        48.30890         0.30698
C         25.81014        50.42359        -0.28174
C         24.50443        51.15404        -0.20488
C         25.73129        53.05457         1.05013
C         24.44585        52.40827         0.62200
C         25.70804        54.41375         1.60012
C         24.40600        54.93635         2.02425
C         25.66408        57.15123         2.46506
C         24.40211        56.39839         2.49969
C         25.56531        58.56480         2.63197
C         24.35911        59.25726         2.73072
C         24.39148        60.67255         2.68399
C         26.83859         8.15978         1.24056
C         28.06217        10.30491         1.24393
C         26.85765         9.57535         1.33240
C         28.05746        11.71430         1.29502
C         26.80836        12.40204         1.51327
C         28.06763        14.60930         1.38813
C         26.84825        13.86407         1.73512
C         28.05192        16.01866         1.30435
C         26.79622        16.75536         1.43677
C         28.01861        18.94316         1.08613
C         26.80572        18.25888         1.64651
C         28.02540        20.32534         1.00295
C         26.80855        21.09700         1.03872
C         28.02995        23.26037         0.90721
C         26.81102        22.54013         0.95968
C         28.06973        24.68823         0.93396
C         26.81715        25.40644         1.05088
C         28.16712        27.60488         0.99363
C         26.83857        26.89473         1.09800
C         28.18664        28.96827         0.36911
C         26.91734        29.68656         0.04346
C         28.23250        31.87345        -0.30022
C         26.92705        31.16276        -0.20499
C         28.33526        33.14651        -1.08313
C         27.05624        33.87336        -1.41781
C         28.28618        36.08802        -1.08788
C         27.07495        35.36075        -1.24597
C         28.28935        37.48878        -0.80602
C         27.03243        38.18621        -0.81319
C         28.23363        40.34331        -0.25164
C         26.98875        39.62989        -0.62946
C         28.26285        41.82556        -0.24252
C         27.07633        42.49896        -0.12624
C         28.30082        44.69221        -0.04167
C         27.13448        43.88842         0.46860
C         28.25150        46.06554         0.03719
C         26.99805        46.79809         0.21497
C         28.26195        48.99222         0.13326
C         26.99198        48.26675         0.03893
C         28.31606        50.36263         0.21752
C         27.09578        51.15953         0.00940
C         28.27987        53.13956         1.16133
C         27.05288        52.54242         0.57672
C         28.17699        54.41710         1.69956
C         26.90597        55.09163         1.86919
C         26.86237        56.47293         2.27420
C         29.25246        12.45668         1.13455
C         30.45399        14.58522         0.81839
C         29.26687        13.87780         1.10858
C         30.46366        15.99311         0.72328
C         29.24076        16.70181         0.93934
C         30.50960        18.84880         0.38563
C         29.19042        18.14616         0.68512
C         30.58796        20.29575         0.63301
C         29.33414        21.02137         0.97263
C         30.54915        23.17682         0.44647
C         29.30921        22.51464         0.94330
C         30.56702        24.67053         0.49715
C         29.32726        25.35984         0.87994
C         30.74979        27.48834         0.79543
C         29.44280        26.81291         1.01437
C         30.73277        28.90195         0.35411
C         29.48403        29.72307         0.46714
C         30.78727        31.80406        -0.38655
C         29.51202        31.15010         0.03470
C         30.81994        33.27761        -0.45621
C         29.63284        33.90268        -1.01818
C         30.83583        36.11640        -0.71275
C         29.60702        35.42664        -1.13267
C         30.78828        37.53231        -0.58519
C         29.53785        38.18196        -0.61399
C         30.78888        40.39269        -0.36476
C         29.53584        39.61348        -0.25958
C         30.76329        41.81199        -0.33209
C         29.52997        42.53552        -0.22216
C         30.76955        44.65481        -0.37909
C         29.53620        43.95506        -0.24494
C         30.77407        46.12776        -0.41899
C         29.47916        46.85278        -0.20873
C         30.80096        48.97118         0.23124
C         29.51222        48.20708         0.45651
C         30.77414        50.35910         0.43789
C         29.54549        51.07522         0.55624
C         29.49610        52.41078         0.99904
C         31.69237        16.68277         0.45638
C         32.98696        18.78264         0.22691
C         31.77419        18.07727         0.37968
C         33.04827        20.20777         0.28014
C         31.80505        20.92400         0.58568
C         33.11976        23.09109         0.72820
C         31.82641        22.40089         0.44582
C         33.15486        24.58336         0.83998
C         31.90576        25.36913         0.61396
C         33.28325        27.52859         0.99669
C         31.93754        26.82823         0.84939
C         33.29341        28.94695         0.50267
C         32.03338        29.59882         0.13463
C         33.25213        31.85670         0.20095
C         32.05702        31.06474        -0.18507
C         33.27079        33.28539        -0.14195
C         32.03710        33.97045        -0.41762
C         33.28104        36.11635        -0.33479
C         32.04000        35.41160        -0.52747
C         33.26332        37.56756        -0.35295
C         32.03032        38.25812        -0.44200
C         33.24864        40.41626        -0.48464
C         32.01421        39.69346        -0.43499
C         33.23341        41.83509        -0.49585
C         32.00269        42.53515        -0.41134
C         33.24741        44.70118        -0.41575
C         31.99215        43.96566        -0.40667
C         33.23367        46.12424        -0.25310
C         32.04561        46.85162        -0.17612
C         32.00025        48.25439         0.04118
C         34.23581        20.91011         0.03647
C         35.58101        23.14176         0.04502
C         34.40127        22.32881         0.41611
C         35.64181        24.51866         0.14745
C         34.48467        25.30371         0.64792
C         35.62841        27.43078         0.08515
C         34.46431        26.75780         0.44968
C         35.69009        28.85824         0.16621
C         34.50919        29.61343         0.36128
C         35.78735        31.85249         0.17138
C         34.54735        31.10393         0.42280
C         35.75189        33.22893        -0.00988
C         34.49115        33.96655        -0.10239
C         35.76213        36.10501        -0.01163
C         34.48028        35.39620        -0.19922
C         35.76379        37.60716        -0.02819
C         34.48583        38.30869        -0.30568
C         35.74275        40.43500        -0.59879
C         34.48584        39.70124        -0.46136
C         35.68582        41.86606        -0.68642
C         34.48222        42.56803        -0.57868
C         34.44803        43.99425        -0.52157
C         36.77989        25.28651        -0.31775
C         37.94815        27.42991        -0.81651
C         36.81107        26.67467        -0.32836
C         38.05119        28.80466        -0.70508
C         36.98265        29.54844         0.01678
C         38.25255        31.74076        -0.47410
C         37.04205        31.05938         0.09395
C         38.23153        33.23342        -0.59141
C         36.98307        33.98043        -0.26258
C         38.28576        36.08028        -0.68952
C         37.00481        35.34469        -0.29878
C         38.00480        37.49187        -1.13534
C         37.10740        38.32088        -0.24816
C         36.94560        39.75809        -0.66932
C         39.08751        29.56545        -1.36340
C         40.09344        31.68559        -2.15744
C         39.16455        30.94472        -1.33278
C         40.06178        33.04598        -2.29304
C         39.14376        33.89891        -1.56097
C         39.09498        35.25494        -1.67522
O         23.56664        16.52308         2.83322
O         29.60632        18.49059        -0.70475
O         22.07472        21.67327        -1.03301
O         18.60930        51.00559        -1.25741
O         16.96097        30.22245        -3.19854
O         19.56021        16.45886         2.12189
O         12.34072        35.71523        -1.82572
O         28.80314        39.83962         1.02011
O         15.47559        32.50004        -2.87727
O         18.25793        15.26902        -1.14837
O         19.01670        42.35927        -2.17091
O         29.88168        34.58421        -2.29056
O         33.73366        31.59228         1.55149
O         26.21875        14.24634         3.02653
O          9.65558        29.28334        -2.23249
O         31.12291        22.71403        -0.81711
O         14.99268        26.92327         0.01466
O          7.19068        31.66727        -1.08133
O         30.01565        46.74168        -1.54875
O         28.86638        27.45230         2.25429
O         13.03020        27.01618        -3.20203
O         16.59330        48.14856         1.57989
O         33.93413        24.98048         1.99769
O         26.14126        27.58028         2.19556
O         29.55798        30.77333         1.46117
O         38.92450        32.58859         0.52261
O         13.54080        41.97215        -1.62412
O         31.27654        25.17550        -0.70142
O         24.39942        55.28319         3.45182
O         24.05379        46.40722        -1.27122
O         20.23841        46.41288        -1.73203
O         19.77433        44.21905         1.02556
O         17.55326        39.75674        -2.23929
O         29.52721        21.81734         2.21953
O         25.03491        44.05980         1.62739
O         37.37108        30.24335         1.26319
O         12.86462        31.19527         0.39661
O         20.66010        29.11557        -2.70501
O         22.45550        44.23256         1.41719
O         21.69666         9.87072        -0.88509
O         35.75327        36.89471         1.25950
O         18.97324        37.77749         0.72299
O         16.05912        46.68487        -1.65904
O         27.40569        32.02119         0.90297
O         24.54191        39.02931        -2.32578
O         20.81717        56.82422         2.99269
O         22.00303        25.02576         1.78682
O         24.04893        26.35732         2.15580
O         13.70551        24.58689        -2.54816
O         27.68197        28.94572        -1.00517
O         27.86898        33.21207        -2.45832
O         33.87373        22.49219         1.80453
O         25.20260        51.04806        -1.47652
O         25.03633        52.08423         1.95050
O         18.52661        27.76086        -2.92909
O         22.49051        51.00299        -1.47772
O         27.22329        52.33461        -0.85865
O         25.15777        42.51830        -1.63945
O         19.28030        12.26209        -1.31699
O         31.55091        31.28440        -1.53956
O         16.93627        25.68433        -2.61076
O          8.29684        32.93969         2.11793
O         23.87692         5.48827         2.41764
O         31.33598        28.90198        -0.98773
O         15.78038        19.35249        -1.65216
O         39.16179        36.19680         0.48097
H         38.88488        37.01530         0.96810
O         19.10322        22.77590         1.78418
H         18.42970        22.11216         2.08502
O         14.34810        29.15013         0.53868
H         13.77206        29.84037         0.94254
O         24.10937        12.38488         3.33504
H         24.83917        12.93953         3.70718
O         17.02792        13.87628         2.01556
H         16.15795        13.61664         2.38657
O         26.90631        18.41998         3.10581
H         26.12580        17.98212         3.50943
O         17.74273        20.43725         1.88540
H         18.35027        19.82859         2.36214
O         15.09288        39.41399         1.47695
H         14.32734        39.01844         1.96889
O         37.76788        38.41945         1.07444
H         37.17018        37.94641         1.70815
O         21.24459        31.78690        -3.12640
H         21.19810        30.85364        -3.44585
O         11.64427        38.55215        -1.54806
H         11.64310        37.74859        -2.11710
O         23.40906        36.03632         0.97291
H         22.56513        36.40239         1.31544
O         21.58835        26.70229        -2.13019
H         21.18076        27.06259        -2.95117
O         33.49080        27.61706         2.45239
H         33.69044        26.70066         2.76540
O         25.43226        32.83437        -2.85776
H         26.29275        32.62015        -3.28786
O         24.45318        48.44857         1.76799
H         24.55604        49.39650         2.00168
O         13.59995        29.46290        -2.48576
H         13.45757        27.78389        -3.64762
O         27.50456        43.67377         1.86892
H         26.66783        43.52069         2.36775
O         18.56226        11.75000         1.84864
H         18.24240        12.63289         2.17823
O         12.49239        38.92086         1.99644
H         12.18853        39.59766         2.63786
O         22.69176        58.62927         4.31571
H         21.87872        58.09212         4.44699
O         21.53037        13.65718         2.86601
H         22.33131        13.24328         3.27688
O         20.99075        27.46328         1.36928
H         21.34250        26.99453         2.16161
O         12.87027        32.79021        -2.48568
H         12.76029        33.65379        -2.94037
O         29.46580        47.90969         1.88879
H         29.49484        48.75986         2.37615
H          4.92098        31.14315         1.10306
H          5.14742        33.47350         1.78756
H          7.34304        26.78980         0.06503
H          6.16882        28.91058         0.61269
H          6.47255        35.70986         1.62555
H          7.71492        37.77824         1.55040
H          9.79221        22.57806        -0.07765
H          8.57234        24.69938        -0.03296
H          8.77998        39.91718         1.11454
H          9.94416        42.11701         0.92390
H         12.23348        18.29233         0.04329
H         11.01977        20.43338         0.02087
H         11.14830        44.28060         0.66728
H         12.28656        46.38972         0.61215
H         14.74855        13.97934         0.09892
H         13.46280        16.10863         0.10012
H         13.49821        48.57542         0.71679
H         14.79017        50.81225         0.93000
H         17.36550         9.50332        -0.20724
H         16.46658        12.01201        -0.77445
H         16.04570        52.98251         0.94420
H         17.29694        55.12713         0.89568
H         19.87363         5.41228         0.23087
H         18.64641         7.53798         0.01321
H         18.74388        57.15472         0.37587
H         20.00058        59.52567         1.16165
H         23.18639         2.11523         0.70482
H         21.11970         3.26157         0.86769
H         23.30102        62.50142         2.31144
H         21.20090        61.36004         1.69783
H         25.34907         3.19192         0.43212
H         26.67032         5.64105         0.53915
H         26.49574        59.15382         2.58923
H         25.36151        61.18648         2.75826
H         27.79517         7.63152         1.11267
H         29.01412         9.77021         1.11304
H         29.08397        54.93416         2.04679
H         27.81087        57.02632         2.34162
H         30.19445        11.91472         0.96625
H         31.38311        14.02524         0.63881
H         31.72112        50.91894         0.48001
H         30.43770        52.89482         1.30064
H         32.61305        16.08615         0.37596
H         33.92031        18.21426         0.09886
H         34.19641        46.64811        -0.15073
H         32.95155        48.80944         0.06374
H         35.12190        20.35378        -0.30627
H         36.43029        22.61196        -0.41421
H         36.63038        42.42376        -0.77300
H         35.39974        44.54651        -0.53835
H         37.66544        24.72949        -0.66044
H         38.75592        26.87482        -1.31892
H         38.83390        38.02181        -1.63576
H         37.87333        40.33300        -0.81369
H         39.80410        29.00994        -1.98892
H         40.82635        31.10713        -2.74022
H         40.77987        33.53345        -2.96967
H         39.77389        35.78022        -2.36524
