         314
 CSIRO Nanostructure Databank - Neutral Graphene Oxide Data Set
C         30.63144        57.18142        -1.13471
C         30.57965        58.59537        -1.07156
C         29.40938        59.32464        -1.41714
C         30.57748        61.43322        -1.10719
C         29.42003        60.71992        -1.41901
C         33.24931        53.00660        -1.32323
C         33.09430        54.35325        -0.89437
C         31.90436        55.05835        -1.05049
C         32.92252        57.18847        -0.28126
C         31.80043        56.46823        -0.78516
C         32.93584        58.61447        -0.33700
C         31.75906        59.32181        -0.71617
C         32.97894        61.44850        -0.48225
C         31.77675        60.75118        -0.76136
C         35.85072        48.84119        -1.50316
C         35.81285        50.23056        -1.39877
C         34.60223        50.96273        -1.54537
C         35.69103        53.12072        -0.89719
C         34.48124        52.33435        -1.25925
C         35.55187        54.40310        -0.20255
C         34.20040        54.98760        -0.13675
C         35.29354        57.21344         0.75940
C         34.07530        56.44375         0.25352
C         35.37478        58.58910         0.12023
C         34.13492        59.34094        -0.10554
C         35.39951        61.47579         0.09466
C         34.17472        60.76032        -0.18326
C         38.07788        44.46589        -0.80393
C         38.02705        45.87723        -0.61032
C         36.97793        46.65101        -1.16521
C         38.08282        48.68920        -0.42803
C         36.97537        48.05747        -1.06427
C         38.20417        50.15396        -0.47741
C         37.07018        50.94687        -1.06925
C         38.06168        53.02875         0.07121
C         37.02743        52.41710        -0.78400
C         37.93065        54.35218         0.45597
C         36.67989        55.06020         0.27345
C         37.78086        57.17020         0.88196
C         36.62876        56.47475         0.64785
C         37.69349        58.63331         1.11908
C         36.62754        59.35741         0.36752
C         37.80040        61.51103         0.74997
C         36.58443        60.83428         0.42380
C         40.30605        40.00420        -0.75732
C         39.88726        41.27041        -0.26279
C         39.16476        42.29362        -0.85629
C         40.19527        44.23476         0.42511
C         39.13108        43.64425        -0.33768
C         40.07078        45.67610         0.87050
C         39.07372        46.51662         0.10902
C         40.21472        48.62296         0.81424
C         39.11255        47.92771         0.17327
C         40.27676        50.02025         0.88692
C         39.21029        50.84344         0.36160
C         40.28371        52.92429         1.17169
C         39.18290        52.22855         0.53457
C         40.30837        54.30348         1.33565
C         38.99556        55.04667         1.29023
C         40.23220        57.21759         1.58150
C         39.15414        56.50756         0.79529
C         40.13624        58.62490         1.85056
C         38.89747        59.40478         1.52919
C         40.21892        61.49287         1.13980
C         38.96313        60.84238         1.15145
C         42.89266        35.89185        -1.17370
C         42.77278        37.17082        -0.64271
C         41.42644        37.82957        -0.51348
C         42.57577        39.95726         0.34463
C         41.44732        39.34028        -0.28574
C         42.65478        41.35798         0.67016
C         41.47762        42.13892         0.79681
C         42.64221        44.25776         0.97567
C         41.41170        43.55959         0.74773
C         42.61216        45.70108         1.09316
C         41.39933        46.38219         0.99481
C         42.67365        48.56545         1.52317
C         41.33317        47.81487         1.30800
C         42.68748        50.02246         1.41300
C         41.47737        50.69368         1.32179
C         42.77607        52.88217         1.79063
C         41.44000        52.13352         1.58579
C         42.75118        54.35282         1.66245
C         41.53567        55.01402         1.62955
C         42.75882        57.26734         1.75172
C         41.47223        56.48047         2.05539
C         42.72902        58.64373         1.64062
C         41.49258        59.43050         1.81437
C         42.65060        61.48085         0.99835
C         41.44136        60.82913         1.33399
C         45.38736        33.13133        -1.44656
C         44.19288        33.82909        -1.55230
C         45.34124        35.89704        -0.84570
C         44.14219        35.20432        -1.20215
C         45.19169        37.26652        -0.44597
C         43.92877        37.84912        -0.19711
C         45.14160        39.90630         0.79254
C         43.82804        39.16750         0.47005
C         45.13304        41.37644         0.89716
C         43.89756        42.07251         0.85600
C         45.08774        44.20948         1.17665
C         43.86706        43.51825         1.02116
C         45.09097        45.64590         1.40674
C         43.85437        46.42102         1.25040
C         45.09865        48.57549         1.02492
C         43.90856        47.82080         1.30139
C         45.15164        49.97337         1.03683
C         43.94827        50.72807         1.36771
C         45.28332        52.80329         1.39350
C         43.99470        52.10407         1.52359
C         45.30888        54.30834         1.57040
C         44.03925        55.08331         2.02103
C         45.19431        57.21740         1.35123
C         44.01772        56.55273         1.62689
C         45.28060        58.69013         1.38131
C         43.96771        59.44079         1.53755
C         45.08579        61.51093         0.71494
C         43.89826        60.84691         1.07408
C         46.54726        33.77394        -0.99763
C         47.81698        35.68478        -0.17743
C         46.58262        35.15828        -0.72330
C         48.16943        37.03192        -0.26212
C         46.33191        38.12422        -0.38569
C         47.68020        39.97911         0.50293
C         46.41530        39.31252         0.31428
C         47.62708        41.34132         0.88506
C         46.38372        42.03454         0.97561
C         47.64762        44.28539         0.93037
C         46.35894        43.51364         0.94658
C         47.66522        45.74994         1.03401
C         46.42037        46.44178         1.29188
C         47.56107        48.49493         0.21898
C         46.31538        47.80569         0.72076
C         47.44845        49.97221        -0.18614
C         46.32882        50.69967         0.58658
C         47.40237        52.85421        -0.03839
C         46.35503        52.07720         0.65966
C         47.37231        54.34899         0.06497
C         46.38980        55.03310         0.90695
C         47.63647        57.25796         0.54157
C         46.44812        56.48612         1.07193
C         47.52793        58.71699         0.33004
C         46.40921        59.39874         0.73397
C         47.47542        61.56110         0.16410
C         46.31641        60.84174         0.53308
C         49.09928        37.84256         0.41926
C         50.15976        40.00201         0.71353
C         48.96669        39.26947         0.49894
C         50.18912        41.39819         0.92520
C         48.89200        42.05396         1.18653
C         50.16691        44.28573         1.04152
C         48.91063        43.56055         1.23395
C         50.11895        45.75312         1.06385
C         48.84960        46.47539         0.83899
C         50.08058        48.58154         0.33037
C         48.85462        47.86557         0.55264
C         50.01403        50.02473        -0.01280
C         48.78355        50.69721        -0.12553
C         49.96746        52.93692        -0.69037
C         48.73231        52.13252        -0.45022
C         49.85594        54.33068        -0.78836
C         48.62254        55.08860        -0.40560
C         49.89888        57.22946        -0.39416
C         48.76136        56.53273        -0.09591
C         49.89043        58.69830        -0.77091
C         48.53542        59.43151        -0.54289
C         49.88760        61.57709        -0.31880
C         48.68712        60.90254        -0.15612
C         51.36747        42.15765         0.89515
C         52.60146        44.33850         0.71580
C         51.38195        43.59402         0.93722
C         52.63346        45.72147         0.57804
C         51.40597        46.51697         0.82116
C         52.52651        48.52589        -0.25501
C         51.29350        47.89606         0.33784
C         52.49736        50.01186         0.02685
C         51.21669        50.73615        -0.22120
C         52.66566        52.75279        -0.86472
C         51.23948        52.12310        -0.74944
C         52.84351        54.17896        -1.14762
C         50.94027        55.20832        -1.17832
C         52.39694        57.23712        -0.73919
C         51.10821        56.53343        -0.79285
C         52.40143        58.59265        -0.46134
C         51.14173        59.34106        -0.22364
C         52.45106        61.52553        -0.46141
C         51.17201        60.88232        -0.18242
C         53.83257        46.45912         0.33622
C         55.05038        48.56533         0.12969
C         53.83221        47.84156         0.13014
C         55.09931        49.97082         0.06945
C         53.81324        50.70441         0.06406
C         54.99406        52.85028        -0.00605
C         53.85145        52.13099        -0.25584
C         54.93339        54.33000         0.05672
C         53.77730        54.99641        -0.59907
C         54.97651        57.21768        -0.40482
C         53.71926        56.48697        -0.77979
C         54.91848        58.65455         0.00652
C         53.62361        59.36785        -0.10310
C         54.89204        61.45979        -0.71243
C         53.65364        60.83384        -0.39689
C         56.27331        50.73511         0.17899
C         57.45504        52.90209         0.29933
C         56.25728        52.16115         0.22763
C         57.50519        54.31957         0.20948
C         56.23073        55.07245         0.22496
C         57.44226        57.17065        -0.15992
C         56.25249        56.50602        -0.09569
C         57.47672        58.65154        -0.20979
C         56.20111        59.42874        -0.10114
C         57.34387        61.39138        -1.07756
C         56.14668        60.80400        -0.65464
C         58.69328        55.03061         0.02000
C         59.86472        57.14814        -0.53740
C         58.71055        56.45007        -0.18447
C         59.85110        58.54594        -0.90292
C         58.65797        59.30152        -0.78455
C         59.77266        61.28683        -1.62998
C         58.58957        60.67267        -1.14363
C         61.00773        59.20350        -1.38252
C         60.95460        60.55525        -1.73681
O         41.84675        48.12092         2.64123
O         57.05745        59.28123         1.07353
O         40.28249        41.49337         1.08549
O         33.74112        55.38298         1.21326
O         40.80670        59.13611         3.04685
O         36.69630        53.19492        -1.97794
O         51.12549        59.99893         1.03797
O         50.88402        46.32965         2.18307
O         47.40119        37.76642        -1.20079
O         48.85017        42.77352         2.47457
O         46.71512        47.69255        -0.69752
O         53.04860        50.41334         1.32776
O         45.85418        46.14032         2.58664
O         47.02281        43.92897        -0.36947
O         44.41707        39.17529         1.82607
O         51.90713        54.68867        -2.04015
O         41.96164        52.43523         2.91903
O         54.62102        57.00693        -1.82777
O         52.04048        52.07288        -1.99561
O         45.77915        53.40493         2.67181
O         38.21949        50.60812        -1.90237
O         55.33598        54.81499         1.38035
O         47.56841        56.91017         1.97965
O         47.46008        54.93762        -1.29490
O         36.37026        58.75169        -0.94662
O         37.82661        59.09158         2.49781
O         44.87414        59.25557         2.67064
O         47.65095        52.43069        -1.39431
O         54.16100        58.95234         1.21454
O         47.82280        59.44970        -1.76594
O         52.43092        48.41018        -1.70806
H         52.47816        47.46055        -1.94532
O         41.38515        56.40557         3.51378
H         42.25167        56.05131         3.83304
O         35.05419        57.47570         2.16120
H         34.75050        56.63151         2.56419
O         38.50342        55.10780         2.65237
H         39.21738        55.48063         3.21773
O         39.53004        45.60876         2.24836
H         40.21307        45.18956         2.81455
O         40.60947        37.47814        -1.63513
H         41.11405        37.66017        -2.45399
O         50.10630        58.67667        -2.19898
H         49.19755        58.87850        -2.57863
O         44.03558        55.12194         3.47625
H         44.57026        54.34865         3.78302
O         47.05288        50.00883        -1.57902
H         46.62344        49.14286        -1.77895
O         39.57381        56.49062        -0.59754
H         38.90354        55.98930        -1.11110
H         29.75042        56.62654        -1.48994
H         28.49473        58.77912        -1.68973
H         30.57132        62.53227        -1.13211
H         28.50427        61.26645        -1.68513
H         32.36856        52.47154        -1.70890
H         31.04786        54.56013        -1.52882
H         32.98447        62.54770        -0.52769
H         34.94516        48.30635        -1.82673
H         33.69154        50.40462        -1.81082
H         35.36312        62.57556         0.09882
H         37.28308        43.99941        -1.40555
H         36.15341        46.14264        -1.68630
H         37.84716        62.60077         0.60188
H         39.68212        39.47321        -1.49419
H         38.63013        42.09591        -1.79720
H         40.25251        62.54344         0.81350
H         41.98745        35.36491        -1.51009
H         40.91373        37.39529         0.39189
H         42.60125        62.51998         0.64012
H         45.42104        32.05964        -1.68715
H         43.27036        33.31621        -1.85889
H         45.02847        62.58005         0.45935
H         47.47061        33.18927        -0.87625
H         48.49040        34.97652         0.32826
H         47.47262        62.65777         0.27777
H         49.98300        37.38497         0.88944
H         51.11675        39.46240         0.64636
H         49.89565        62.67498        -0.41741
H         52.32273        41.63510         0.73453
H         53.53547        43.77170         0.58367
H         52.44246        62.57356        -0.79825
H         54.79616        45.93150         0.41381
H         55.98687        48.00611         0.28086
H         54.86935        62.51642        -1.02229
H         57.24304        50.21907         0.24632
H         58.40656        52.35049         0.34792
H         57.32814        62.43066        -1.44078
H         59.64575        54.48082        -0.02790
H         60.81933        56.60485        -0.60797
H         59.75295        62.34732        -1.91901
H         61.95216        58.64795        -1.47153
H         61.86316        61.05007        -2.10794
