         204
 CSIRO Nanostructure Databank - Neutral Graphene Oxide Data Set
C        -11.12026         0.66186         0.27672
C        -10.08805         1.48485        -0.45860
C         -8.77227         0.72201        -0.69779
C         -7.47669         1.45541        -0.61671
C         -6.22965         0.71736        -0.62849
C         -4.98210         1.44777        -0.70013
C         -3.72217         0.72899        -0.84829
C         -2.49635         1.39099        -1.07894
C         -1.23103         0.65490        -1.29893
C          0.13609         1.46571        -1.11017
C          1.39984         0.75931        -0.77971
C          2.50436         1.43170        -0.17270
C          3.70788         0.70148         0.10276
C          4.91748         1.40862         0.39578
C          6.16750         0.67489         0.47207
C          7.39915         1.36704         0.59039
C          8.63168         0.67802         0.49456
C          9.87683         1.42320         0.35112
C         11.08583         0.67049         0.07268
C         -9.89132         2.85912         0.10640
C         -8.70335         3.55501        -0.07154
C         -7.47424         2.83024        -0.41261
C         -6.22924         3.56462        -0.41573
C         -5.00206         2.84154        -0.64464
C         -3.75101         3.58866        -0.84997
C         -2.43096         2.86241        -1.11979
C         -1.16830         3.57672        -0.76052
C          0.04460         2.88433        -0.67403
C          1.24176         3.56579        -0.24466
C          2.47566         2.84786        -0.03833
C          3.68318         3.54043         0.24220
C          4.91364         2.82354         0.41344
C          6.13258         3.55618         0.60753
C          7.37011         2.81072         0.84269
C          8.72866         3.59823         0.72202
C          9.90149         2.80033         0.35817
C         -8.65941         4.95944         0.13491
C         -7.46746         5.70542        -0.06803
C         -6.24354         4.95726        -0.28143
C         -4.98549         5.68242        -0.06687
C         -3.67680         4.94044        -0.25330
C         -2.43028         5.70522        -0.35934
C         -1.20532         4.98758        -0.46444
C         -0.00168         5.69110        -0.15300
C          1.22788         4.96213        -0.03673
C          2.45755         5.67612         0.21932
C          3.69016         4.96560         0.29935
C          4.91854         5.67784         0.42783
C          6.15544         4.95873         0.55655
C          7.41043         5.69124         0.48637
C          8.62788         5.01417         0.41258
C         -7.43455         7.10059        -0.01992
C         -6.22372         7.86511        -0.47734
C         -4.94485         7.13767        -0.14229
C         -3.73221         7.80584        -0.05303
C         -2.46984         7.08872        -0.10759
C         -1.24619         7.80380         0.04230
C         -0.04064         7.08712         0.09772
C          1.17464         7.80225         0.61668
C          2.46119         7.08163         0.33937
C          3.67785         7.79904         0.37259
C          4.91375         7.09536         0.38849
C          6.16114         7.81918         0.37513
C          7.36453         7.11870         0.37421
C         -6.17023         9.29848        -0.01566
C         -4.99053         9.93574         0.17105
C         -3.71329         9.24951         0.06858
C         -2.50474         9.93092         0.15526
C         -1.25488         9.25064         0.15492
C         -0.02800         9.94949         0.18402
C          1.20101         9.27519         0.28272
C          2.44106         9.93963         0.26007
C          3.66506         9.24463         0.33943
C          4.91956         9.93340         0.31983
C          6.11366         9.25615         0.33468
C        -11.08048        -0.68466         0.36024
C         -9.92114        -1.47681        -0.01587
C         -8.74648        -0.78100        -0.60462
C         -7.41905        -1.54127        -0.69717
C         -6.20172        -0.67487        -0.44699
C         -4.95364        -1.34891        -0.33330
C         -3.76317        -0.69212        -0.62887
C         -2.58918        -1.52982        -1.04103
C         -1.26975        -0.80871        -1.10752
C         -0.19741        -1.64050        -1.35384
C          1.62956        -0.57008        -1.13046
C          2.61625        -1.39451        -0.52268
C          3.70853        -0.72071         0.04545
C          4.87774        -1.49050         0.58967
C          6.17866        -0.73841         0.42567
C          7.39664        -1.43593         0.42709
C          8.63167        -0.73878         0.38984
C          9.87373        -1.46287         0.15767
C         11.08598        -0.68416        -0.01460
C         -9.86197        -2.81045         0.28732
C         -8.63028        -3.57041         0.23649
C         -7.40090        -2.87646         0.01074
C         -6.18752        -3.52757         0.19123
C         -4.90896        -2.73192         0.27959
C         -3.67154        -3.53823        -0.02596
C         -2.50632        -2.90751        -0.43036
C         -1.25763        -3.61042        -0.41162
C         -0.05150        -2.96259        -0.79622
C          1.23908        -3.55759        -0.55473
C          2.48454        -2.84700        -0.48989
C          3.70447        -3.56889        -0.23341
C          4.92195        -2.90412         0.06034
C          6.13399        -3.62078         0.11550
C          7.38243        -2.91441         0.46361
C          8.70585        -3.65925         0.24312
C          9.89558        -2.83186         0.01152
C         -8.60622        -4.93405         0.54097
C         -7.38355        -5.64709         0.59914
C         -6.14916        -4.92508         0.48785
C         -4.90633        -5.61932         0.58240
C         -3.66383        -4.92557         0.33944
C         -2.43702        -5.62158         0.37605
C         -1.22928        -4.96344         0.04746
C          0.03738        -5.63109         0.10356
C          1.23452        -4.96306        -0.18818
C          2.48373        -5.69983        -0.19251
C          3.71373        -4.99567        -0.28393
C          4.94443        -5.71175        -0.29161
C          6.17508        -5.01022        -0.15383
C          7.42897        -5.72811        -0.29487
C          8.63823        -5.04404        -0.23010
C         -7.36068        -7.06181         0.75094
C         -6.15934        -7.76466         0.77319
C         -4.90651        -7.04756         0.72723
C         -3.69973        -7.76607         0.75727
C         -2.41162        -7.02305         0.93874
C         -1.20587        -7.80531         0.52147
C          0.05308        -7.05452         0.49391
C          1.32343        -7.84391         0.31813
C          2.51671        -7.10690        -0.10989
C          3.71369        -7.83145        -0.31241
C          4.93728        -7.13209        -0.41025
C          6.18047        -7.84426        -0.56298
C          7.37970        -7.14293        -0.55480
C         -6.12182        -9.20417         0.83082
C         -4.94120        -9.88807         0.78382
C         -3.67737        -9.19227         0.73033
C         -2.46213        -9.88818         0.61548
C         -1.20844        -9.20107         0.47461
C          0.01657        -9.93075         0.21839
C          1.24392        -9.30033         0.09048
C          2.47128        -9.96921        -0.23823
C          3.67455        -9.28114        -0.37534
C          4.92738        -9.95916        -0.61517
C          6.11118        -9.28238        -0.70336
O         -2.25551        -6.85215         2.41009
H         -1.29384        -6.76366         2.59392
O         -7.25902        -1.94471        -2.09609
H         -7.66974        -1.23175        -2.64068
O         -4.24942         5.06954         1.08068
O         -4.78356        -2.43868         1.72769
H         -4.71058        -3.29873         2.19545
O        -10.69581         1.74019        -1.76845
H        -10.43009         0.98132        -2.34081
O         -0.44276         1.18778        -2.41335
O          4.66865        -1.61347         2.04009
H          5.43300        -2.10757         2.40729
O         -6.29630         7.91235        -1.96019
H         -5.54121         8.45596        -2.27127
O         -2.88082        -1.81177        -2.47212
H         -2.83546        -0.95858        -2.95601
O          0.90106        -7.38927         1.66718
O          8.12932         3.22778         2.00938
O          1.03430         7.75967         2.09417
H          1.81264         8.22449         2.46963
O          0.86279        -1.16114        -2.13031
O         -3.20096         3.51040        -2.19964
O          8.10702        -3.48015         1.59608
O         -8.96769        -0.11080        -1.90429
H         12.02229        -1.22534        -0.21597
H         12.02249         1.23225        -0.05894
H         10.82722         3.32801         0.08115
H          9.53522         5.55827         0.10966
H          8.31403         7.67307         0.32825
H          7.06216         9.81282         0.31602
H          4.91307        11.03297         0.28507
H          2.45868        11.03504         0.14775
H         -0.03593        11.04820         0.10958
H         -2.51012        11.02735         0.25352
H         -4.97642        11.00615         0.42892
H         -7.11674         9.85414         0.06536
H         -8.35647         7.65617         0.20874
H         -9.59235         5.48853         0.37971
H        -10.79492         3.41091         0.40825
H        -12.01873         1.19666         0.62052
H        -11.92097        -1.22667         0.82176
H        -10.75478        -3.30619         0.69954
H         -9.55194        -5.47273         0.70180
H         -8.31425        -7.60829         0.80487
H         -7.07572        -9.74967         0.88272
H         -4.93587       -10.98796         0.79522
H         -2.47217       -10.98788         0.58645
H         -0.04726       -11.02235         0.09327
H          2.46138       -11.06457        -0.34771
H          4.91628       -11.05569        -0.70610
H          7.04827        -9.83631        -0.86348
H          8.32905        -7.68712        -0.67322
H          9.57478        -5.55933        -0.49195
H         10.82921        -3.33107        -0.29064
