         429
 CSIRO Nanostructure Databank - Neutral Graphene Oxide Data Set
C          1.24140         3.41775         0.24418
C          0.05256         4.09974         0.46896
C          1.22660         6.25218         0.50074
C          0.03483         5.49160         0.60327
C          1.24531         7.68084         0.65988
C          0.03068         8.42868         0.84943
C          1.31211        10.49846         1.39679
C          0.03305         9.75873         1.11756
C          1.24900        11.98458         1.11647
C          0.06169        12.68899         1.24422
C          1.16506        14.84277         0.90752
C          0.01211        14.09065         1.11450
C          1.12788        16.30749         0.87389
C         -0.09851        17.02618         0.99519
C          1.05298        19.17653         0.84920
C         -0.13891        18.40214         0.95111
C          1.03947        20.60275         0.73397
C         -0.18159        21.39129         0.74014
C          1.04250        23.39033        -0.12206
C         -0.19446        22.70929         0.42298
C          1.07001        24.90552        -0.00518
C         -0.13149        25.63522        -0.33502
C          0.97164        27.80947         0.22749
C         -0.19160        26.98574        -0.26779
C          1.00160        29.17916        -0.43471
C         -0.15663        30.06761        -0.25226
C          1.15802        32.06923        -0.80029
C         -0.09327        31.40048        -0.51610
C          1.15623        33.52867        -1.10761
C          0.27075        33.99632        -2.09496
C          1.50006        36.08960        -2.28479
C          0.38354        35.28854        -2.60410
C          1.60232        37.44363        -2.79249
C          3.68545         3.44448        -0.06968
C          2.47054         4.12969         0.14632
C          3.67737         6.28671         0.11681
C          2.45499         5.55993         0.26821
C          3.67614         7.73621         0.16897
C          2.47483         8.41413         0.54451
C          3.67331        10.56349         0.49693
C          2.50142         9.82215         0.75341
C          3.67691        12.01457         0.60511
C          2.45971        12.70118         0.85503
C          3.62829        14.85366         0.67319
C          2.42186        14.14137         0.79216
C          3.61536        16.33946         0.41700
C          2.31636        17.04414         0.75071
C          3.52865        19.21485         0.79562
C          2.29920        18.46836         0.79330
C          3.51413        20.60380         0.81029
C          2.26979        21.31665         0.66808
C          3.43844        23.48448         0.67195
C          2.27000        22.72263         0.43083
C          3.48310        24.90249         0.50238
C          2.25570        25.60839         0.19858
C          3.49645        27.73015         0.01473
C          2.29063        27.06554         0.11632
C          3.60077        29.15615        -0.28286
C          2.34127        29.85554        -0.69014
C          3.63770        31.99385        -0.87270
C          2.32282        31.32270        -0.82023
C          3.85733        33.16476        -1.78090
C          2.15915        34.43699        -0.64713
C          3.80097        36.34738        -1.19074
C          2.45593        35.63395        -1.34703
C          3.81704        37.76767        -1.77336
C          2.63085        38.25993        -2.43955
C          6.15336         3.47301        -0.23063
C          4.92233         4.14174        -0.10276
C          6.12058         6.30222        -0.32803
C          4.87841         5.57842        -0.02220
C          6.08632         7.79081        -0.51768
C          4.84380         8.49183        -0.11327
C          6.01806        10.69006        -0.38121
C          4.84490         9.88995         0.05048
C          6.08143        12.11962        -0.01655
C          4.89331        12.75111         0.40932
C          6.10867        14.91205         0.61361
C          4.87706        14.18614         0.58350
C          6.11485        16.31609         0.84511
C          4.79908        17.02142         1.10524
C          6.11534        19.20015         0.69968
C          4.81234        18.47230         0.68495
C          6.10887        20.69357         0.86802
C          4.76913        21.39770         0.88800
C          5.60803        23.66190         1.67876
C          4.58782        22.84254         1.19516
C          5.82856        24.98710         1.26704
C          4.71363        25.59074         0.63256
C          6.07681        27.68105         0.23450
C          4.76978        26.97460         0.13132
C          6.06364        29.18809         0.35819
C          4.81423        29.80416        -0.24835
C          6.17929        31.89291        -0.87262
C          4.89956        31.24836        -0.54172
C          6.21242        33.27836        -1.11627
C          5.00387        34.02458        -1.37649
C          6.28217        35.98511        -1.76658
C          4.99996        35.41622        -1.59199
C          6.24294        38.15375        -1.47775
C          4.86539        38.64153        -1.58263
C          8.61375         3.54979        -0.64764
C          7.46007         4.11685         0.13189
C          8.65877         6.43278        -0.20680
C          7.41428         5.64752         0.03686
C          8.57885         7.88041        -0.54939
C          7.37360         8.53270        -0.55728
C          8.58272        10.77777        -0.98109
C          7.29211         9.98752        -0.79244
C          8.53054        12.17126        -0.39238
C          7.33500        12.83289        -0.09694
C          8.55937        14.91635         0.48495
C          7.36032        14.23395         0.33105
C          8.58857        16.24387         1.19243
C          7.32032        17.02772         0.96106
C          8.59100        19.14154         0.98645
C          7.36695        18.44707         0.97151
C          8.61438        20.58446         1.02692
C          7.41294        21.28515         1.28037
C          8.65289        23.41415         1.55273
C          7.53806        22.59410         1.75957
C          8.54575        24.91495         1.87713
C          7.18375        25.65030         1.45145
C          8.59744        27.59402         0.34061
C          7.28037        27.03076         0.87860
C          8.56467        29.11487         0.21739
C          7.39441        29.76674        -0.08976
C          8.59381        31.91256        -0.22190
C          7.45866        31.09046        -0.83754
C          8.67011        33.33464        -0.72604
C          7.46365        33.99947        -1.02950
C          8.64559        36.19536        -1.04610
C          7.48273        35.39199        -1.30649
C          8.60324        37.63739        -0.86164
C          7.35631        38.42185        -0.74546
C         11.00393         3.57683        -1.14760
C          9.82241         4.25145        -0.80562
C         11.02410         6.42975        -0.85160
C          9.89210         5.70633        -0.57117
C         11.05501         7.87720        -0.73522
C          9.83875         8.60417        -0.64987
C         11.06970        10.72069        -0.54517
C          9.84693        10.01658        -0.64005
C         11.08607        12.14652        -0.39000
C          9.81024        12.88924        -0.45475
C         11.10845        14.93288         0.44344
C          9.82596        14.35401         0.01973
C         11.11450        16.31920         0.84641
C          9.85615        17.02895         0.96423
C         11.07516        19.17363         1.05457
C          9.84112        18.42269         1.03256
C         11.07177        20.55447         0.98687
C          9.84036        21.30862         1.04576
C         11.10954        23.43099         1.48568
C          9.83975        22.72499         1.23640
C         11.08994        24.96467         1.60764
C          9.81170        25.67241         1.39928
C         11.10429        27.69416         0.75673
C          9.84822        26.98739         0.94829
C         11.11761        29.06980         0.32454
C          9.86594        29.78205         0.05148
C         11.13319        31.82990        -0.55238
C          9.88101        31.12371        -0.26662
C         11.14226        33.34227        -0.73772
C          9.85842        34.06720        -0.73101
C         11.09927        36.19892        -0.62319
C          9.86290        35.49384        -0.81116
C         11.06668        37.63043        -0.58563
C          9.80271        38.29899        -0.62752
C         13.53509         3.59137        -1.48012
C         12.31138         4.28058        -0.92853
C         13.52526         6.45328        -1.17756
C         12.22680         5.72409        -1.43331
C         13.52449         7.86962        -0.95076
C         12.29683         8.57701        -0.78569
C         13.53428        10.71726        -0.56635
C         12.31452        10.00527        -0.61064
C         13.54694        12.12366        -0.26800
C         12.29266        12.82589        -0.14923
C         13.56335        14.83568         0.57026
C         12.31416        14.21844         0.26287
C         13.58875        16.20163         1.20098
C         12.32013        16.98348         1.00893
C         13.61116        19.14492         1.00816
C         12.34229        18.43241         1.40854
C         13.62125        20.53004         0.93192
C         12.34904        21.28089         0.86800
C         13.67132        23.36217         1.58415
C         12.37615        22.76246         1.07610
C         13.65968        24.90022         1.51908
C         12.36644        25.64506         1.34252
C         13.62996        27.73210         1.01376
C         12.34464        26.99002         1.00428
C         13.61249        29.20276         0.63333
C         12.33282        29.80684         0.22208
C         13.57842        31.93157        -0.22249
C         12.38878        31.17351        -0.17915
C         13.57560        33.36312        -0.27644
C         12.37608        34.07652        -0.45025
C         13.55109        36.24401        -0.30623
C         12.33337        35.50729        -0.44167
C         13.51183        37.68013        -0.34622
C         12.26982        38.34718        -0.45751
C         15.95367         3.68624        -2.00199
C         14.71051         4.29512        -1.55055
C         15.97295         6.41388        -1.02412
C         14.69985         5.72647        -1.24803
C         15.96610         7.87874        -1.09757
C         14.76746         8.58762        -0.97417
C         15.99080        10.72828        -0.72387
C         14.78882        10.03239        -0.78247
C         16.06918        12.22014        -0.54274
C         14.76442        12.80898        -0.08096
C         16.05815        14.81430         0.59186
C         14.78273        14.15777         0.37044
C         16.05926        16.24931         0.72484
C         14.83869        16.97469         0.85809
C         16.04516        19.10599         0.64967
C         14.82650        18.38776         0.85772
C         16.05310        20.53059         0.58716
C         14.83763        21.27532         0.77577
C         16.04090        23.40877         0.59869
C         14.86802        22.69177         0.91172
C         16.13156        24.82291         0.70169
C         14.93963        25.58723         1.13976
C         16.08663        27.70800         0.61126
C         14.90459        27.02668         0.83637
C         16.07329        29.13790         0.36869
C         14.87463        29.81057         0.21916
C         16.02589        31.98268         0.34129
C         14.90020        31.21304        -0.33615
C         16.02267        33.43445        -0.05662
C         14.82592        34.11575        -0.14325
C         15.98818        36.32424         0.08998
C         14.79699        35.57697        -0.15094
C         15.96319        37.77177        -0.05645
C         14.72974        38.39778        -0.29302
C         18.36814         3.79986        -2.58131
C         17.16034         4.33358        -1.96423
C         18.48909         6.45681        -1.55767
C         17.26622         5.67497        -1.34645
C         18.48854         7.83306        -1.40970
C         17.21189         8.57120        -1.37274
C         18.51036        10.66245        -0.67695
C         17.23908        10.09639        -1.14490
C         18.47239        11.83965         0.14565
C         17.29893        12.69647         0.22631
C         18.49190        14.82779         0.98304
C         17.28424        14.06497         0.63611
C         18.52419        16.25058         0.82518
C         17.28640        16.96620         0.68288
C         18.49462        19.12070         0.52343
C         17.28247        18.39846         0.61216
C         18.49186        20.51490         0.26512
C         17.25763        21.21061         0.31070
C         18.53629        23.39353        -0.06677
C         17.20484        22.65901         0.08403
C         18.56221        24.84162         0.19880
C         17.32719        25.53183         0.43663
C         18.53385        27.68826         0.33950
C         17.34558        26.98615         0.47932
C         18.55676        29.13327         0.37511
C         17.33720        29.85114         0.28277
C         18.56866        31.95454         0.32669
C         17.35352        31.26407         0.23307
C         18.60336        33.42585         0.15868
C         17.29498        34.16682        -0.09343
C         18.36766        36.15284         0.80945
C         17.22030        35.59395         0.27235
C         18.35116        38.27483         0.43858
C         17.15351        38.59167        -0.18159
C         19.56205         4.43276        -2.52066
C         20.91234         6.55640        -2.10847
C         19.77029         5.67814        -1.68432
C         20.89308         7.89821        -1.87849
C         19.70514         8.58218        -1.43431
C         20.91796        10.38640        -0.29562
C         19.70987         9.91825        -0.87840
C         20.87242        11.40929         0.63545
C         19.65901        12.07004         0.88936
C         20.85855        14.94599         1.69188
C         19.66369        14.25000         1.51271
C         20.90473        16.30722         1.38095
C         19.74532        16.96733         0.97519
C         20.94176        19.06767         0.14175
C         19.79202        18.47579         0.91899
C         20.92663        20.38638        -0.16424
C         19.74442        21.20814         0.03766
C         20.99839        23.36302        -0.00409
C         19.78967        22.61528        -0.01136
C         20.99147        24.74855         0.02060
C         19.79673        25.50360         0.15851
C         20.98097        27.69701         0.74244
C         19.84557        27.00999         0.02424
C         20.95340        29.03497         0.92098
C         19.78098        29.82744         0.57668
C         20.97551        32.02755         0.80312
C         19.79243        31.25427         0.56101
C         20.95699        33.41140         0.88766
C         19.78815        34.16542         0.63349
C         20.79737        36.47459         0.85215
C         19.68942        35.58871         0.78109
C         20.78111        37.84885         0.53073
C         19.69562        38.65549         0.16940
O          5.67690        27.15558        -1.04316
O          8.10810         6.24753         1.18066
O          6.51399        23.08507         2.55800
O         18.23230        37.35551         1.50841
O          6.42270        37.16051        -2.48356
O          5.50891        18.74344        -0.56243
O          3.35110        33.24792        -2.89449
O         13.63990        28.77209         2.04728
O         18.17935        33.83139        -1.21940
O          9.82260        13.99822        -1.40989
O          8.73652        27.18849        -1.00754
O          6.02374         6.87897        -1.68388
O         19.63817        12.92474         1.98570
O          1.59015        29.17174        -1.75892
O         14.54069        25.40799         2.58259
O          5.59920        21.33194        -0.35595
O         11.21752        32.43246        -1.90183
O         11.16330        24.06787         2.77799
O          7.11065        26.86346         2.31098
O         16.78463         5.78453         0.04904
O         17.16432         9.53519        -2.49010
O         12.36530        22.25879        -0.27340
O          6.31737        10.38592        -1.81430
O         17.68938        23.07245        -1.23498
O          4.20611        32.12674         0.48141
O          8.57694        24.99201         3.31434
H          8.25456        25.88987         3.55976
O         16.27191        12.75834        -1.91489
H         15.64963        12.29076        -2.51250
O          7.70860         3.75363         1.53222
H          8.10985         4.54940         1.95951
O          3.82408        16.50260        -1.01231
H          3.07624        16.07961        -1.48247
O         20.09591         5.20513        -0.32399
H         19.25683         4.90766         0.09052
O          4.08461        36.56389         0.21405
H          3.85975        35.73565         0.69887
O          2.81134        34.20517         0.53131
H          2.56453        33.33370         0.90634
O          7.76789        30.77384        -2.21985
H          8.11149        29.85486        -2.26629
O          0.74681        28.07369         1.64983
H          0.68507        27.20885         2.10727
O          8.59044        15.93164         2.64993
H          8.38461        16.76420         3.12649
O         15.70177        31.98119         1.76836
H         16.45378        32.37186         2.26006
O          5.97116        29.47982         1.78556
H          6.14395        30.43810         1.90870
O         13.66552        15.96528         2.66309
H         13.48085        16.83994         3.08857
O         20.01307        18.88704         2.32371
H         20.04555        19.86770         2.33543
O          8.72193        11.01143        -2.41803
H          7.80790        11.13227        -2.76942
O          1.02784        23.12705        -1.57603
H          1.18964        22.16743        -1.70099
O          4.58135        17.00852         2.53999
H          4.54444        16.07366         2.83380
O         13.74485        22.98671         2.98011
H         14.22055        23.71428         3.44548
O         12.49487         4.37429         0.52334
H         12.53665         3.46360         0.88258
O         12.03392         5.66790        -2.87280
H         11.94659         6.58584        -3.20469
O          1.53215        10.39703         2.85713
H          1.56040         9.44166         3.07803
O         12.37851        18.41885         2.90124
H         11.51279        18.06866         3.20473
O         20.08882        27.24715        -1.40999
H         19.34742        26.83998        -1.90661
O         15.21259        31.14704        -1.75386
H         14.39568        30.91862        -2.24469
O          8.23390        32.04444         1.19432
H          8.95528        32.52422         1.65284
H          1.24508         2.32301         0.14553
H         -0.89018         3.54033         0.54910
H         -0.92575         5.98811         0.79305
H         -0.93460         7.91359         0.74536
H         -0.92866        10.27104         1.25715
H         -0.87696        12.16600         1.46945
H         -0.96405        14.58095         1.22282
H         -1.04599        16.47965         1.09228
H         -1.11364        18.90598         1.00528
H         -1.12267        20.90426         1.03563
H         -1.14718        23.25934         0.43630
H         -1.01232        25.06923        -0.67114
H         -1.12445        27.50917        -0.52359
H         -1.08786        29.63347         0.14059
H         -0.99242        32.02153        -0.39176
H         -0.51840        33.32762        -2.46600
H         -0.35636        35.66203        -3.32552
H          0.77763        37.82885        -3.40963
H          3.67900         2.34900        -0.16647
H          2.64181        39.30557        -2.78317
H          6.15069         2.38028        -0.36162
H          4.71287        39.70444        -1.84131
H          8.61165         2.46610        -0.84254
H          7.35762        39.25467        -0.02691
H         10.98034         2.48963        -1.32251
H          9.79081        39.38894        -0.47567
H         13.51341         2.51161        -1.69520
H         12.24716        39.44696        -0.44499
H         15.89754         2.67548        -2.43544
H         14.70257        39.49082        -0.41449
H         18.27612         2.85461        -3.13906
H         17.09841        39.46239        -0.85242
H         20.44114         3.98334        -3.00750
H         21.81856         6.07825        -2.50913
H         21.78881         8.49484        -2.10880
H         21.85778         9.84477        -0.46824
H         21.76412        11.68758         1.21204
H         21.73179        14.43000         2.11056
H         21.83216        16.87415         1.53836
H         21.83780        18.46091        -0.05501
H         21.80748        20.84615        -0.63640
H         21.96152        22.83426        -0.03099
H         21.95017        25.28320        -0.03231
H         21.86935        27.11698         1.03209
H         21.81932        29.53892         1.37478
H         21.92619        31.50733         0.98262
H         21.88241        33.93643         1.16509
H         21.79680        36.02201         0.94428
H         21.77740        38.30197         0.39968
H         19.89595        39.59453        -0.36729
