         480
 CSIRO Nanostructure Databank - Neutral Graphene Oxide Data Set
C         37.55744        50.17354        -1.23367
C         36.35645        50.85323        -1.28028
C         37.48498        52.92496        -0.74051
C         36.32051        52.24048        -1.02951
C         40.15467        48.74302        -1.24519
C         40.02825        50.15338        -0.88373
C         38.77314        50.84989        -0.94049
C         39.95793        52.96191        -0.37611
C         38.73965        52.25799        -0.69039
C         39.98894        54.40798        -0.30787
C         42.39757        48.64397        -0.19038
C         41.26801        48.02536        -0.98617
C         42.47779        50.11533        -0.53258
C         41.18495        50.85012        -0.51706
C         42.39423        52.91453         0.22587
C         41.16277        52.24294        -0.25414
C         42.35654        54.44454         0.38722
C         41.11749        55.11060        -0.03743
C         44.96910        45.83871        -0.23583
C         43.76892        46.54675        -0.33598
C         44.95950        48.65346        -0.07146
C         43.73707        47.93838        -0.27133
C         44.98020        50.07741         0.02502
C         43.75833        50.84140        -0.28890
C         44.89148        52.92075         0.39913
C         43.71497        52.26665         0.07819
C         44.86165        54.37181         0.71635
C         43.64656        55.15859         0.43333
C         44.95899        57.23049         0.31860
C         43.73222        56.53589         0.32319
C         47.46192        44.35468         0.03144
C         47.43662        45.77221         0.09266
C         46.18826        46.50284        -0.02888
C         47.41814        48.63446         0.25028
C         46.19085        47.92936         0.05716
C         47.41643        50.06029         0.33577
C         46.17557        50.78536         0.25858
C         47.39647        52.92794         0.43673
C         46.16177        52.22236         0.37681
C         47.43593        54.36028         0.43665
C         46.20148        55.12521         0.67733
C         47.43521        57.24168         0.18825
C         46.19211        56.57265         0.38998
C         47.49481        58.68567         0.15952
C         49.89018        44.32162         0.23547
C         48.64469        43.65314         0.09565
C         49.88798        45.74422         0.35439
C         48.65538        46.47230         0.26884
C         49.87718        48.61400         0.48278
C         48.65504        47.91217         0.34187
C         49.88408        50.05133         0.48976
C         48.64315        50.77258         0.42622
C         49.86983        52.91523         0.38007
C         48.63904        52.20327         0.41044
C         49.88244        54.33996         0.28300
C         48.64299        55.06057         0.28044
C         49.89152        57.17406        -0.06532
C         48.66367        56.50373         0.13655
C         49.89132        58.62357        -0.50400
C         48.64587        59.35031        -0.08401
C         52.32770        41.47024        -0.10375
C         51.17218        42.17973        -0.05836
C         52.33337        44.28762         0.48150
C         51.12932        43.59093         0.26361
C         52.32646        45.70147         0.61315
C         51.12261        46.44162         0.54177
C         52.32194        48.60762         0.69077
C         51.11940        47.89176         0.59553
C         52.34986        50.03755         0.62018
C         51.10685        50.76203         0.53887
C         52.32451        52.91546         0.46883
C         51.11361        52.20046         0.45854
C         52.34168        54.33669         0.35724
C         51.10979        55.05259         0.25015
C         52.38267        57.16443         0.04165
C         51.13284        56.47739         0.05999
C         52.44413        58.59815        -0.43209
C         51.15989        59.36908        -0.06224
C         52.44726        61.39854        -0.60718
C         51.25998        60.76413        -0.64064
C         54.96140        39.92692         0.32032
C         54.88613        41.36635        -0.11750
C         53.60353        42.04893         0.34380
C         54.88580        44.27448         0.46271
C         53.60668        43.53943         0.61881
C         54.87128        45.67976         0.53952
C         53.60554        46.38850         0.87164
C         54.84407        48.63947         0.62259
C         53.59917        47.90583         0.89413
C         54.83400        50.02737         0.59683
C         53.58006        50.72107         0.65187
C         54.82595        52.84936         0.17884
C         53.60767        52.20838         0.80982
C         54.83839        54.32868         0.19827
C         53.56560        55.06271         0.37229
C         54.87810        57.18287         0.36190
C         53.59232        56.46804         0.25348
C         54.87178        58.65020         0.40626
C         53.66175        59.36749         0.05805
C         54.77680        61.55962         0.40752
C         53.63523        60.74333        -0.06103
C         54.90080        62.99146         0.04054
C         57.41097        40.00830         0.48997
C         56.13801        39.30367         0.53774
C         57.34641        41.45140         0.39111
C         56.14761        42.12669         0.23513
C         57.31203        44.32424         0.13154
C         56.10777        43.57853         0.27869
C         57.25730        45.73140         0.04293
C         56.05529        46.40817         0.30907
C         57.35594        48.54400         0.53441
C         56.05017        47.90134         0.11697
C         57.38060        50.05140         0.55741
C         56.09399        50.77729         0.43667
C         57.37024        52.88522        -0.16895
C         56.11556        52.12795         0.25713
C         57.38894        54.32958         0.26319
C         56.09802        54.99648         0.67515
C         57.33030        57.14170         0.84561
C         56.05978        56.48553         0.49115
C         57.29556        58.63479         0.98900
C         56.03552        59.34942         0.69165
C         57.38721        61.53664         0.94818
C         56.03073        60.82217         0.82480
C         57.33061        63.04440         0.58027
C         56.05538        63.66640         0.16052
C         59.83930        37.18583         0.67156
C         58.68927        37.87527         0.51290
C         59.90771        40.02416         0.65782
C         58.62995        39.32660         0.60447
C         59.91867        41.51155         0.59931
C         58.59934        42.22961         0.51283
C         59.76012        44.28572        -0.25023
C         58.58839        43.64040         0.05383
C         59.78606        45.73536        -0.48819
C         58.48556        46.49252        -0.28990
C         59.88231        48.49229         0.55301
C         58.57953        47.87370         0.14452
C         59.91267        49.99153         0.34748
C         58.63443        50.68486        -0.04776
C         59.85568        52.85310         0.29862
C         58.65707        52.16862         0.14607
C         59.86005        54.29348         0.36614
C         58.60183        55.00254         0.41015
C         59.83115        57.12128         0.65642
C         58.62303        56.43427         0.63872
C         59.86584        58.60246         0.74112
C         58.58900        59.37496         0.84744
C         59.77763        61.40048        -0.08776
C         58.43749        60.71151         0.14231
C         59.83781        62.89481        -0.00202
C         58.61650        63.73614         0.23351
C         59.97556        65.69411        -0.19604
C         58.78881        65.09199        -0.38073
C         62.51470        35.81192         1.65276
C         62.37894        37.04697         0.79192
C         61.09562        37.86189         1.15360
C         62.38614        40.06862         0.63501
C         61.09529        39.33842         0.75426
C         62.39856        41.54957         0.24061
C         61.12724        42.22079         0.16122
C         62.29410        44.31290        -0.61830
C         61.00571        43.50244        -0.61313
C         62.29386        45.67750        -0.50225
C         61.07677        46.45118        -0.29417
C         62.36171        48.52909         0.15675
C         61.11293        47.78826         0.03548
C         62.36842        49.94084         0.44008
C         61.09731        50.67371         0.44505
C         62.31451        52.83176         0.53820
C         61.11634        52.13587         0.41982
C         62.32999        54.26714         0.52476
C         61.08885        54.99215         0.47277
C         62.32138        57.13344         0.53233
C         61.08627        56.42357         0.53493
C         62.31344        58.58621         0.33045
C         61.09264        59.29341         0.27294
C         62.27427        61.40024        -0.23723
C         61.06992        60.67827         0.01624
C         62.28502        62.86588        -0.19818
C         61.14277        63.54946         0.13633
C         62.38660        65.69486         0.64652
C         61.05923        64.98465         0.61768
C         62.48198        66.89643         1.30336
C         65.01694        36.00866         1.85233
C         63.69699        35.28876         1.99023
C         64.95687        37.26007         0.97268
C         63.62130        37.97595         0.97342
C         64.79787        39.93848        -0.24833
C         63.48689        39.20966         0.03720
C         64.79150        41.41849        -0.39823
C         63.61933        42.13850        -0.35347
C         64.89222        44.31756        -0.92060
C         63.54260        43.51247        -1.01073
C         64.71943        45.58968        -0.05239
C         63.58785        46.45874        -0.62285
C         64.80394        48.55574         0.07487
C         63.56810        47.85313        -0.02690
C         64.81741        49.96678         0.30427
C         63.58050        50.64224         0.49949
C         64.86345        52.84019         0.61032
C         63.58091        52.09237         0.93067
C         64.83864        54.25995         0.60619
C         63.56103        54.97914         0.60298
C         64.80032        57.14045         0.74546
C         63.53512        56.39690         0.60745
C         64.77063        58.61873         0.42914
C         63.51019        59.30635         0.07902
C         64.76279        61.37494        -0.67151
C         63.49933        60.68018        -0.26498
C         64.82029        62.93005        -0.72565
C         63.53396        63.65158        -0.42712
C         64.90003        65.72984         0.32201
C         63.58517        65.09528         0.03438
C         64.91259        67.04593         0.93279
C         63.70838        67.59203         1.40246
C         67.27249        33.03480         0.85319
C         66.10656        33.78478         1.13765
C         67.47077        35.79518         1.26745
C         66.17791        35.13531         1.40638
C         67.44424        37.31726         0.88408
C         66.10600        37.89256         0.60221
C         67.36987        39.95144        -0.24090
C         66.09431        39.20912        -0.09718
C         67.31996        41.36879        -0.49659
C         66.07921        42.08344        -0.53903
C         67.31637        44.18398        -0.38483
C         66.09935        43.49303        -0.51365
C         67.32520        45.63162        -0.08802
C         66.02662        46.36767         0.08067
C         67.25924        48.52888        -0.04690
C         66.03231        47.84082        -0.02405
C         67.26904        49.94962         0.17401
C         66.07756        50.66390         0.35875
C         67.32027        52.84222         0.47949
C         66.08399        52.12502         0.51376
C         67.29734        54.25845         0.55161
C         66.07454        54.97976         0.56959
C         67.29903        57.15330         0.57986
C         66.10648        56.42957         0.63408
C         67.26032        58.67909         0.67198
C         66.05544        59.15518        -0.13984
C         67.21031        61.14097        -0.86437
C         66.02070        60.62790        -0.44877
C         67.28211        63.29325        -1.10647
C         66.06924        63.75186        -0.59419
C         67.39168        65.75593         0.20491
C         66.07851        65.06653         0.00622
C         67.36737        67.19865         0.55971
C         66.14496        67.77577         1.01860
C         67.29921        69.86699         1.55977
C         66.18220        69.10349         1.58323
C         69.72718        31.43691         0.50447
C         69.75593        32.84900         0.53181
C         68.54016        33.62777         0.73861
C         69.85354        35.73320         0.53808
C         68.65116        35.04629         0.85201
C         69.85536        37.15896         0.28821
C         68.63517        37.88860         0.27586
C         69.80998        39.86330        -0.68573
C         68.56576        39.23179        -0.22035
C         69.78946        41.39097        -0.89322
C         68.53299        42.09957        -0.62847
C         69.78629        44.26117        -0.67581
C         68.54927        43.50706        -0.52365
C         69.75147        45.68410        -0.71165
C         68.53303        46.40455        -0.41475
C         69.66576        48.54885        -0.76536
C         68.47675        47.79018        -0.35398
C         69.71319        50.01457        -0.42838
C         68.60391        50.61452         0.43717
C         69.77623        52.80149         0.14627
C         68.58672        52.13212         0.32406
C         69.85665        54.26858         0.30672
C         68.55863        55.01859         0.59205
C         69.75304        57.12317         0.05231
C         68.55516        56.48010         0.39338
C         69.85759        58.60555         0.08775
C         68.58389        59.35918         0.25900
C         69.73828        61.57041        -0.69018
C         68.51086        60.76569        -0.28285
C         69.69600        62.98047        -1.25031
C         68.58666        63.84839        -1.03770
C         69.79380        66.15208        -0.67127
C         68.68384        65.20506        -0.41588
C         69.77304        67.41880        -0.01114
C         68.55643        67.93904         0.55478
C         69.83211        69.92549         1.43000
C         68.53186        69.43297         0.82772
C         69.90198        70.94898         2.38211
C         72.12936        31.35406         0.27372
C         70.89446        30.69712         0.37402
C         72.18132        32.74061         0.28843
C         71.00601        33.51901         0.40927
C         72.24982        35.66453         0.08460
C         71.05415        34.97416         0.35079
C         72.27022        37.04524        -0.09243
C         71.09000        37.81004        -0.06022
C         72.25639        39.97463        -0.56723
C         71.09895        39.21489        -0.41570
C         72.23978        41.37466        -0.76187
C         71.06306        42.12076        -0.81641
C         72.20886        44.32510        -1.03181
C         71.02192        43.56502        -0.82812
C         72.17479        45.69487        -1.13001
C         70.95396        46.42136        -0.98046
C         72.07699        48.62183        -1.35741
C         70.92009        47.83734        -1.05092
C         72.15615        49.95514        -1.07316
C         71.06737        50.63732        -0.35595
C         72.21502        52.92602        -0.54842
C         71.08327        52.12345        -0.06662
C         72.10272        54.25855        -0.77908
C         70.94672        55.00452        -0.35444
C         71.80330        57.11936        -1.33849
C         70.87250        56.39257        -0.47812
C         71.84727        58.46262        -1.41574
C         71.13811        59.31253        -0.39159
C         72.10161        61.38969        -1.35577
C         70.98779        60.78175        -0.83543
C         72.08886        62.73857        -1.81261
C         70.93687        63.49565        -1.72556
C         71.96779        66.76177        -1.63869
C         70.89070        65.87397        -1.51275
C         72.02240        67.90479        -0.84153
C         70.94425        68.24146        -0.01573
C         72.26488        69.85918         1.36772
C         71.02407        69.37326         0.91425
C         72.32059        70.87887         2.31572
C         71.13934        71.42001         2.82846
O         65.40978        39.24953        -1.41821
O         55.08649        61.31058         1.83679
O         66.78372        45.92059         1.26700
O         69.70296        40.45640        -2.01912
O         67.23871        62.11236        -1.86169
O         53.61594        42.54257         1.70823
O         63.34662        64.74719        -1.39184
O         59.02771        46.20438        -1.65014
O         59.26871        42.09971         1.82246
O         57.46436        49.30400         1.80669
O         59.71488        62.20664        -1.31729
O         68.37621        65.03041         1.01785
O         59.43335        59.26190         2.00936
O         43.28572        50.49369        -1.68478
O         67.70149        36.86458         2.25429
O         69.12337        61.68171         0.67216
O         57.23330        57.79201         2.18172
O         62.71758        41.01420         1.64657
O         64.77132        58.16060         1.80627
O         58.08351        63.81322         1.59457
O         71.42447        51.13107         0.98603
O         45.55425        54.75393         1.94275
O         42.19830        53.54505         1.53587
O         69.33088        49.63520        -1.76747
O         69.50469        59.20514         1.38892
O         64.67356        62.11323        -1.93109
O         70.95357        64.75155        -2.34745
O         69.49768        54.66306         1.66981
O         53.65286        47.10255         2.15261
O         54.75616        53.60014        -1.09346
O         56.04200        48.10461        -1.34190
H         55.37917        47.50153        -1.73844
O         57.28180        52.89394        -1.66168
H         56.36784        53.22346        -1.87089
O         67.04447        59.08648         2.02874
H         67.90487        59.00425         2.49826
O         68.45790        70.07752        -0.50104
H         67.60565        69.81098        -0.90658
O         61.03468        37.85093         2.61086
H         60.37393        38.51706         2.89538
O         65.28003        36.47978         3.21139
H         66.21934        36.79863         3.23042
O         62.95504        38.86406        -1.26847
H         63.73723        38.71205        -1.85545
O         63.57034        38.52856         2.30785
H         63.84214        37.82705         2.94729
O         68.93410        50.30410         1.81846
H         69.82760        50.68838         1.99517
O         63.54176        52.04050         2.40169
H         63.56047        52.96352         2.73308
O         64.30139        45.17448         1.25548
H         65.10250        45.16749         1.83098
O         57.86302        60.41744        -1.15012
H         58.28244        61.03182        -1.79943
O         51.07379        59.47427         1.37490
H         51.86853        59.95178         1.69544
O         57.78623        61.44237         2.31785
H         57.02088        61.70930         2.87128
O         56.02940        54.80984         2.13675
H         56.62465        55.46957         2.55633
O         63.35474        43.19572        -2.42889
H         63.69058        43.98584        -2.92166
O         60.72884        43.08645        -2.00456
H         61.61083        42.96380        -2.44679
O         54.79407        41.36997        -1.58162
H         55.58517        40.90909        -1.93264
O         58.50253        50.43909        -1.49368
H         58.05147        51.23106        -1.88470
O         53.83055        52.45169         2.24740
H         53.13970        51.96676         2.74658
O         62.26390        36.51771        -0.53837
H         62.22747        37.28164        -1.16513
O         63.81921        46.69765        -2.03787
H         63.09011        47.26556        -2.36466
O         72.02423        59.34987         0.75868
H         71.46957        59.62331         1.52494
O         42.01005        48.60651         1.21958
H         41.92465        47.66727         1.48580
O         65.25719        44.75240        -2.25748
H         65.80167        44.05012        -2.67191
O         60.63539        64.95679         2.00759
H         59.72065        64.60216         2.07779
O         59.95400        48.28123         2.01440
H         59.15814        48.72526         2.40098
O         49.89226        58.61595        -1.97822
H         49.09451        58.12540        -2.27004
O         66.20571        58.52790        -1.45923
H         65.57843        58.95809        -2.07946
O         52.58206        58.54191        -1.87799
H         51.68182        58.39176        -2.25681
H         37.56570        49.09026        -1.41506
H         35.42564        50.31405        -1.50429
H         37.42580        54.00119        -0.53049
H         35.36107        52.77532        -1.05723
H         39.31998        48.25983        -1.77342
H         39.08328        54.96712        -0.57954
H         41.31950        46.97125        -1.29601
H         41.10420        56.20589        -0.12709
H         44.93041        44.74446        -0.30612
H         42.83582        45.97874        -0.45881
H         44.92351        58.31768         0.17026
H         42.81536        57.12685         0.18995
H         46.52701        43.78969        -0.07448
H         46.59061        59.25877         0.40718
H         48.60830        42.55741         0.04572
H         48.66235        60.44898        -0.05222
H         52.32710        40.44811        -0.50963
H         50.24697        41.68584        -0.38482
H         52.52742        62.43267        -0.97092
H         50.36503        61.27505        -1.02394
H         54.02213        39.35911         0.39537
H         54.00487        63.52917        -0.29991
H         56.13221        38.24061         0.81672
H         56.08567        64.74069        -0.07541
H         59.84923        36.09315         0.54688
H         57.77670        37.33058         0.23155
H         60.17042        66.70006        -0.59675
H         57.96603        65.58038        -0.92397
H         61.59108        35.25697         1.88003
H         61.58122        67.33448         1.75507
H         63.72520        34.35681         2.57635
H         63.69561        68.57448         1.88946
H         67.16049        31.95049         0.72415
H         65.14269        33.26027         1.20204
H         67.25954        70.88500         1.97190
H         65.28146        69.50878         2.06309
H         68.77138        30.90393         0.59692
H         68.98611        71.39483         2.79348
H         73.05624        30.77154         0.18048
H         70.85111        29.59950         0.35911
H         73.16112        33.22952         0.20719
H         73.19501        35.11649        -0.02188
H         73.22756        37.52818        -0.32996
H         73.23867        39.49965        -0.43550
H         73.21067        41.88911        -0.76816
H         73.17063        43.80878        -1.15110
H         73.11204        46.23715        -1.31106
H         72.95360        48.13103        -1.80322
H         73.09032        50.49630        -1.27362
H         73.16699        52.41671        -0.74722
H         72.96777        54.80369        -1.18013
H         72.41772        56.52976        -2.03454
H         72.51632        58.94253        -2.14445
H         73.03927        60.82404        -1.44498
H         72.99054        63.16883        -2.26587
H         72.79116        66.51211        -2.31993
H         72.90667        68.55438        -0.88971
H         73.19933        69.42287         0.98765
H         73.29396        71.24931         2.66625
H         71.18025        72.21967         3.58093
