         424
 CSIRO Nanostructure Databank - Neutral Graphene Oxide Data Set
C          1.35331         3.67185         2.09506
C          0.15002         4.33691         2.07655
C          1.24382         6.41742         1.40620
C          0.09504         5.70508         1.71653
C          1.15330         7.85903         0.94683
C          0.06496         8.64426         1.63108
C          1.28080        10.74550         1.31576
C          0.11314         9.99288         1.71747
C          1.28874        12.16907         1.30597
C          0.07816        12.94014         1.43784
C          1.25100        15.05128         1.02845
C          0.06261        14.30650         1.24532
C          1.26122        16.42839         0.69549
C          0.05341        17.19143         0.65988
C          1.24291        19.17722        -0.11407
C          0.05130        18.51836         0.31180
C          1.23606        20.59425        -0.45640
C          0.05194        21.39498        -0.28161
C          1.16798        23.44464        -1.02500
C          0.03222        22.74906        -0.53445
C          1.19365        24.85328        -1.21555
C         -0.01291        25.61589        -1.13464
C          1.21299        27.71292        -1.36708
C         -0.00700        26.97890        -1.26056
C          1.20996        29.13827        -1.35568
C         -0.00705        29.88913        -1.38086
C          1.19058        32.01855        -1.20919
C         -0.02026        31.25770        -1.31707
C          1.17834        33.42277        -1.15167
C         -0.01472        34.22055        -1.29611
C          1.11340        36.22611        -0.33215
C         -0.03876        35.55187        -1.02501
C          1.17778        37.72482        -0.49828
C          3.78120         3.66410         1.70381
C          2.55720         4.35319         1.74151
C          3.70776         6.42828         1.04585
C          2.50672         5.75010         1.40309
C          3.69977         7.87690         0.82450
C          2.47196         8.59505         0.97614
C          3.68358        10.74046         0.76774
C          2.47636        10.02191         0.99830
C          3.70828        12.14319         0.87494
C          2.51073        12.85963         1.10829
C          3.76792        15.01100         0.73402
C          2.54886        14.35275         1.31933
C          3.73658        16.38180         0.33148
C          2.48652        17.08893         0.31619
C          3.65154        19.01767        -0.76449
C          2.43850        18.42964        -0.15995
C          3.63726        20.48511        -1.16572
C          2.39268        21.22558        -0.90658
C          3.66762        23.31790        -1.65759
C          2.35671        22.63074        -1.32463
C          3.66455        24.81986        -1.72998
C          2.41637        25.56114        -1.47038
C          3.70216        27.69457        -1.36621
C          2.44436        26.97537        -1.44234
C          3.68380        29.12871        -1.22837
C          2.44820        29.85784        -1.26044
C          3.66114        31.96351        -0.87789
C          2.43600        31.27625        -1.14349
C          3.67768        33.40237        -0.73814
C          2.47985        34.18027        -1.21397
C          3.60897        36.25412        -0.42461
C          2.43211        35.57254        -0.64315
C          3.61713        37.69823        -0.23685
C          2.34367        38.39470        -0.37482
C          6.19346         3.60796         1.23108
C          4.96972         4.31510         1.31355
C          6.14128         6.36370         0.57915
C          4.92525         5.71758         0.98255
C          6.11652         7.79873         0.10064
C          4.88623         8.54774         0.53336
C          6.20434        10.71091         0.59958
C          4.89784        10.02335         0.24658
C          6.19601        12.13494         0.71010
C          4.97759        12.85649         0.78592
C          6.23296        15.06853         0.90080
C          4.96142        14.27652         0.76533
C          6.23689        16.24100        -0.09081
C          4.94340        17.03362        -0.09579
C          6.15578        19.09429        -0.85457
C          4.95228        18.35199        -0.56138
C          6.16344        20.47148        -1.09382
C          4.92745        21.22829        -1.22477
C          6.23946        23.34387        -1.65208
C          4.93649        22.59626        -1.40354
C          6.20782        24.81035        -1.27052
C          4.98750        25.56595        -1.56906
C          6.16686        27.68509        -1.04852
C          4.92883        27.00780        -1.29010
C          6.16014        29.11277        -0.92840
C          4.90183        29.82664        -1.02457
C          6.09559        31.89616        -0.36636
C          4.85931        31.22609        -0.79529
C          6.07362        33.37498        -0.12465
C          4.83074        34.09880        -0.41639
C          6.06801        36.22580        -0.14956
C          4.86931        35.54114        -0.37955
C          6.07222        37.66715        -0.01727
C          4.80946        38.36517        -0.07148
C          8.60555         3.54539         0.72771
C          7.38308         4.25198         0.84080
C          8.55519         6.36460         0.01465
C          7.32559         5.65981         0.52584
C          8.56559         7.81566         0.45388
C          7.40619         8.53167         0.45014
C          8.67497        10.66575         0.71778
C          7.40241         9.98204         0.63838
C          8.71233        12.11908         0.67122
C          7.45811        12.86269         0.68026
C          8.74878        14.97650         0.59885
C          7.47860        14.24093         0.70972
C          8.73701        16.46044         0.31425
C          7.41238        17.21102         0.18117
C          8.70105        19.14882        -0.70210
C          7.45651        18.31985        -0.88225
C          8.67692        20.51747        -0.79409
C          7.41800        21.22952        -1.02751
C          8.63259        23.36909        -0.58805
C          7.42896        22.60237        -1.10553
C          8.64280        24.82226        -0.97813
C          7.41401        25.51220        -1.05048
C          8.60965        27.66967        -0.71093
C          7.39100        26.97311        -0.97850
C          8.59111        29.09402        -0.54139
C          7.37583        29.79190        -0.71344
C          8.60134        31.96541        -0.25517
C          7.39165        31.28934        -0.83341
C          8.56954        33.37619        -0.06329
C          7.34790        34.10928        -0.12899
C          8.54419        36.22744         0.12558
C          7.32558        35.51210        -0.05977
C          8.53127        37.65821         0.23384
C          7.27320        38.34527         0.15947
C         11.06797         3.50639         0.36774
C          9.83680         4.20806         0.44983
C         11.05724         6.32603         0.18787
C          9.83492         5.62245         0.29167
C         11.07401         7.74572         0.29202
C          9.86580         8.45043         0.85893
C         11.14866        10.59620         0.60184
C          9.87643         9.94387         0.66122
C         11.21223        12.07450         0.93874
C          9.92880        12.79056         0.62413
C         11.15664        14.82895        -0.04306
C          9.98984        14.20467         0.36908
C         11.12299        16.22665        -0.52940
C          9.94070        17.06673        -0.28932
C         11.19716        19.10523        -0.86879
C          9.94465        18.40419        -0.65455
C         11.19022        20.51879        -0.89768
C          9.93308        21.26031        -0.83840
C         11.19604        23.38365        -1.15528
C          9.92126        22.63381        -0.84944
C         11.14997        24.83191        -0.75263
C          9.92366        25.58467        -1.18995
C         11.02322        27.64015        -0.18714
C          9.84808        26.98078        -0.63801
C         10.99906        29.07827         0.02486
C          9.80504        29.79906        -0.22825
C         11.00944        31.92492         0.21602
C          9.79629        31.23510        -0.09861
C         11.01133        33.37155         0.28398
C          9.78267        34.08597         0.16842
C         10.98849        36.21439         0.45652
C          9.76921        35.50956         0.25051
C         10.97312        37.64104         0.55017
C          9.74155        38.33905         0.44003
C         13.50500         3.49039        -0.10804
C         12.28127         4.17709         0.07873
C         13.47382         6.32765        -0.29101
C         12.28105         5.61229         0.00589
C         13.45341         7.73794        -0.28727
C         12.27746         8.44002         0.10531
C         13.62846        10.51673         0.50169
C         12.31173         9.87242         0.36193
C         13.69518        12.05308         0.51168
C         12.43708        12.77723         0.40519
C         13.65977        14.78763        -0.29136
C         12.42930        14.11096        -0.03211
C         13.72323        16.14168        -0.97650
C         12.40833        16.91722        -0.95054
C         13.65252        19.07984        -0.72396
C         12.42982        18.39219        -0.86440
C         13.64685        20.50276        -0.65117
C         12.42451        21.21888        -0.80469
C         13.56294        23.31855        -0.29224
C         12.42299        22.64565        -0.68728
C         13.46017        24.71920         0.25735
C         12.25151        25.48774        -0.24820
C         13.42155        27.54799         0.56519
C         12.21822        26.89978         0.00985
C         13.40678        29.04620         0.77361
C         12.17527        29.78553         0.41643
C         13.40074        31.93312         0.99041
C         12.18425        31.18749         0.47542
C         13.50268        33.30980         0.33255
C         12.21445        34.08028         0.44324
C         13.44184        36.20676         0.77842
C         12.22062        35.49658         0.54792
C         13.40342        37.61686         0.91413
C         12.20226        38.31357         0.78300
C         15.91807         3.47919        -0.65255
C         14.69995         4.17554        -0.44393
C         15.86263         6.28652        -0.98673
C         14.69127         5.60523        -0.57800
C         15.85784         7.76460        -1.34267
C         14.58586         8.57245        -0.83785
C         16.13357        10.51897        -0.07090
C         14.85509         9.76495         0.08924
C         16.13950        11.99681        -0.02610
C         14.94615        12.71512         0.12951
C         16.14528        14.81516        -0.26054
C         14.90922        14.11678        -0.14350
C         16.14952        16.26246        -0.35464
C         14.93114        16.95403        -0.56736
C         16.12601        19.08764        -0.43152
C         14.90692        18.35939        -0.58147
C         16.11260        20.52451        -0.38865
C         14.86202        21.22566        -0.44527
C         16.03172        23.36329        -0.05958
C         14.81896        22.62948        -0.23611
C         15.99745        24.79174         0.11652
C         14.75881        25.49375         0.18309
C         15.94563        27.61298         0.57590
C         14.73671        26.87228         0.41529
C         15.93453        29.04636         0.77272
C         14.69963        29.77523         0.79222
C         15.92029        31.89791         0.91172
C         14.70089        31.17054         0.83627
C         15.92223        33.34227         0.95586
C         14.71394        34.07452         0.79963
C         15.91727        36.18843         1.10563
C         14.68986        35.47438         0.90502
C         15.92838        37.61673         1.20267
C         14.64053        38.40052         1.28565
C         18.31832         3.45188        -1.25156
C         17.08579         4.16107        -1.02943
C         18.25407         6.27655        -1.81505
C         17.05016         5.57918        -1.21671
C         18.39918         7.72268        -1.40329
C         17.18933         8.36951        -0.79655
C         18.54653        10.53568        -0.77547
C         17.18921         9.89426        -0.97187
C         18.58364        11.93526        -0.53041
C         17.35853        12.66896        -0.29351
C         18.62227        14.78477        -0.26108
C         17.37504        14.09597        -0.25693
C         18.62871        16.24427         0.12469
C         17.35858        16.97623        -0.22364
C         18.60342        19.12211        -0.25802
C         17.35952        18.38732        -0.29732
C         18.58132        20.54445        -0.27099
C         17.31800        21.24740        -0.27531
C         18.48889        23.41880        -0.05702
C         17.28354        22.68260        -0.14656
C         18.46467        24.80840         0.22746
C         17.21168        25.51139         0.28385
C         18.42015        27.62617         0.73322
C         17.18942        26.91933         0.52185
C         18.40745        29.03414         0.96006
C         17.15272        29.75029         0.93210
C         18.36399        31.90257         1.21170
C         17.15317        31.18650         1.02925
C         18.38200        33.32185         1.19383
C         17.14608        34.04471         1.10152
C         18.38576        36.18057         1.23587
C         17.14804        35.47321         1.14282
C         18.37760        37.60482         1.28695
C         17.12733        38.29558         1.28184
C         19.49750         4.10505        -1.55538
C         20.74746         6.22442        -1.86396
C         19.54053         5.51008        -1.71066
C         20.78598         7.60956        -1.78662
C         19.61731         8.37951        -1.45555
C         20.94091        10.51424        -1.07621
C         19.70943         9.81436        -1.09615
C         20.99178        11.88083        -0.83945
C         19.82104        12.63543        -0.59108
C         21.04527        14.83217        -0.47701
C         19.83585        14.08281        -0.41422
C         21.04568        16.23048        -0.46741
C         19.87806        16.97833        -0.28263
C         21.04139        19.17468        -0.39340
C         19.85284        18.42105        -0.30114
C         21.01018        20.56650        -0.40449
C         19.80194        21.26611        -0.31664
C         20.94571        23.41621         0.33704
C         19.80707        22.77332        -0.41009
C         20.88276        24.72026         0.69612
C         19.67784        25.49793         0.52688
C         20.85072        27.62427         1.03581
C         19.65940        26.90994         0.76431
C         20.82198        28.98896         1.27902
C         19.62162        29.71301         1.22860
C         20.85226        31.92442         1.15475
C         19.62475        31.17498         1.60419
C         20.83917        33.27671         1.05827
C         19.62207        34.03597         1.20548
C         20.83024        36.21879         1.32047
C         19.63032        35.47139         1.24726
C         20.80875        37.61336         1.37349
C         19.60241        38.30924         1.35674
O         15.88064         7.84108        -2.75919
O          3.47622        19.42849        -2.17341
O         13.79409        11.23274         1.75761
O         11.51358        16.36884        -1.97217
O          4.40548        25.26086        -2.91918
O          2.84633        22.76232        -2.73509
O          8.95250        15.98774         1.68329
O          6.02970        32.39291         0.99811
O         15.84701         9.76150         1.14938
O         13.22429        28.12787         1.91751
O          7.17201        17.91934         1.40725
H          7.22660        17.25636         2.13685
O          8.46078        23.37263         0.89105
H          8.54904        22.44394         1.19726
O         13.22122        24.52635         1.69556
H         13.14642        25.41637         2.10400
O         17.31912         7.94337         0.58673
H         18.00986         8.48856         1.01854
O          0.76304         7.78778        -0.48002
H          0.59532         8.70697        -0.77845
O         17.99123         6.36059        -3.26282
H         17.13769         6.90586        -3.33256
O          6.06322         7.73426        -1.37404
H          5.80355         8.64403        -1.67694
O          2.74054        14.51617         2.79210
H          1.94057        14.14186         3.22104
O         13.19904        32.14881         2.41157
H         13.12816        31.27238         2.84526
O          7.58077        17.72825        -2.21204
H          7.60017        18.45916        -2.86588
O         14.72930        39.60465         0.50867
H         14.84527        39.35363        -0.43033
O          6.37996        15.58977        -1.36846
H          6.56423        16.27712        -2.05452
O          6.23162        15.59210         2.25910
H          6.11226        14.83993         2.87603
O         20.03425        23.07625        -1.83972
H         20.03912        24.05314        -1.92980
O          9.96780         8.24318         2.32231
H         10.67482         8.83806         2.65365
O         18.66611        16.23965         1.61685
H         19.49012        15.77518         1.87866
O         11.32802        12.13527         2.41005
H         12.23598        11.80290         2.62421
O         11.31401        23.36969        -2.62526
H         10.71170        24.08138        -2.96684
O         13.70792        33.04972        -1.09471
H         13.78355        33.91496        -1.54898
O         13.97946        15.80996        -2.38022
H         13.09574        15.65665        -2.79128
O         13.99715         9.20861        -1.99851
H         14.46577         8.76537        -2.77055
O         19.65908        31.19339         3.08516
H         19.62839        32.13452         3.36081
O         10.04711        25.75901        -2.69585
H         10.78268        26.39092        -2.85042
O          2.70627        34.38114        -2.67171
H          2.82490        33.49174        -3.06944
O         16.84969        10.21778        -2.33840
H         16.48596         9.38796        -2.77956
O          7.42215        31.57436        -2.28085
H          8.22155        31.14409        -2.65193
O          6.39740        23.34784        -3.11308
H          5.65475        23.89470        -3.47325
O          8.47230         6.38685        -1.45062
H          7.60649         6.81816        -1.68023
O          4.82001        10.14690        -1.24880
H          3.90192         9.91082        -1.50520
O          0.87725        35.99856         1.11123
H          1.61459        36.42738         1.59615
H          1.40231         2.60588         2.35997
H         -0.78078         3.80952         2.32773
H         -0.88969         6.18991         1.67358
H         -0.83958         8.12079         1.97129
H         -0.73929        10.53116         2.15621
H         -0.87772        12.42029         1.58504
H         -0.91246        14.81339         1.22119
H         -0.89550        16.72154         0.95023
H         -0.90104        19.06332         0.33424
H         -0.86657        20.92926         0.09660
H         -0.89545        23.30022        -0.32948
H         -0.97349        25.09971        -1.01077
H         -0.96608        27.51049        -1.22063
H         -0.96834        29.36665        -1.47043
H         -0.98516        31.78113        -1.35027
H         -0.93545        33.74013        -1.66211
H         -0.96550        36.12635        -1.17377
H          0.23061        38.27562        -0.60457
H          3.80968         2.59524         1.96293
H          2.36017        39.49495        -0.41272
H          6.20982         2.53388         1.46893
H          4.81425        39.46280         0.01277
H          8.61323         2.46038         0.90917
H          7.26519        39.44106         0.26230
H         11.06896         2.41144         0.47231
H          9.73866        39.43563         0.53017
H         13.52648         2.39425        -0.01318
H         12.20923        39.40909         0.88043
H         15.94222         2.38606        -0.53131
H         14.51626        38.73581         2.35466
H         18.31672         2.35763        -1.13707
H         17.12191        39.39388         1.34207
H         20.43216         3.53018        -1.64184
H         21.68965         5.66576        -1.97198
H         21.75728         8.11359        -1.88628
H         21.88040         9.98439        -1.28560
H         21.97037        12.37887        -0.87368
H         22.00319        14.31451        -0.61815
H         22.00214        16.74114        -0.64874
H         22.01448        18.66948        -0.45349
H         21.95753        21.11413        -0.50064
H         21.87616        22.85405         0.49854
H         21.75887        25.18558         1.16876
H         21.81529        27.10204         1.07200
H         21.76201        29.49750         1.53099
H         21.80032        31.38619         1.01703
H         21.77247        33.80574         0.81797
H         21.79991        35.70388         1.34670
H         21.75691        38.16617         1.43229
H         19.59328        39.40759         1.39937
