         268
 CSIRO Nanostructure Databank - Neutral Graphene Oxide Data Set
C        -11.28318         0.72676        -0.10766
C        -10.05465         1.44599        -0.49975
C         -8.77925         0.70044        -0.36824
C         -7.56070         1.37946        -0.16623
C         -6.35954         0.65223        -0.06417
C         -5.15140         1.30426         0.54374
C         -3.83629         0.62018         0.34615
C         -2.50138         1.32621         0.57734
C         -1.26247         0.76128        -0.09426
C          0.05960         1.37094         0.25551
C          1.30295         0.64827        -0.23307
C          2.50184         1.46437        -0.60008
C          3.74643         0.75269        -1.05123
C          5.08120         1.44177        -0.90566
C          6.33712         0.67969        -0.71029
C          7.53330         1.38433        -0.12979
C          8.85885         0.71551        -0.36611
C         10.06988         1.41178         0.21771
C         11.13383         0.50923         0.72729
C        -10.00694         2.92967        -0.64457
C         -8.64869         3.64982        -0.65270
C         -7.60563         2.84923         0.13469
C         -6.42673         3.54858         0.74217
C         -5.14711         2.76402         0.97933
C         -3.82299         3.48674         1.19157
C         -2.47894         2.75635         1.06618
C         -1.15008         3.58148         1.20604
C          0.11255         2.79501         0.72114
C          1.39989         3.56730         0.50395
C          2.68398         2.79490         0.12244
C          3.76783         3.62806        -0.58679
C          5.08170         2.93222        -0.70379
C          6.18692         3.63461         0.11172
C          7.46149         2.81109         0.32148
C          8.69307         3.58173         0.82470
C          9.97191         2.78408         0.70047
C         -8.80633         5.07978        -0.10444
C         -7.48488         5.80341         0.05477
C         -6.35536         5.06025         0.70495
C         -5.05008         5.77538         0.90489
C         -3.77400         5.01130         1.20027
C         -2.46757         5.76527         1.14133
C         -1.23961         5.00974         0.68610
C          0.00529         5.75600         0.32213
C          1.34017         5.05549         0.38133
C          2.51152         5.83480        -0.15984
C          3.77352         5.12856        -0.49785
C          5.10770         5.83835        -0.57878
C          6.38520         5.07601        -0.34839
C          7.64510         5.77379         0.03541
C          8.72842         5.04704         0.40015
C         -7.40785         7.13186        -0.17042
C         -6.20440         7.95005         0.24426
C         -4.92438         7.08367         0.10815
C         -3.71600         7.93222         0.45660
C         -2.47741         7.26998         0.94191
C         -1.17405         8.00854         0.82014
C          0.07227         7.25387         0.50684
C          1.25705         8.03455        -0.09124
C          2.56063         7.28799         0.19738
C          3.83993         8.01549         0.06131
C          5.09278         7.33368        -0.42085
C          6.38485         8.06193        -0.19810
C          7.72417         7.30665        -0.13810
C         -6.04406         9.25007        -0.51559
C         -4.86227         9.85797        -0.68457
C         -3.53521         9.21852        -0.34041
C         -2.52178        10.17426         0.35378
C         -1.18073         9.47280         0.53871
C          0.00375        10.14503         0.48667
C          1.30513         9.47935         0.41201
C          2.50820        10.11715         0.46871
C          3.78457         9.52774        -0.12541
C          5.07968        10.09454         0.43038
C          6.24185         9.41187         0.42953
C        -11.27625        -0.61480         0.07134
C        -10.07069        -1.41437        -0.07387
C         -8.81382        -0.71266        -0.32993
C         -7.59839        -1.43021        -0.44169
C         -6.36706        -0.74006        -0.36454
C         -5.06456        -1.51852        -0.45080
C         -3.82862        -0.59399        -0.56968
C         -2.55142        -1.34708        -0.20142
C         -1.29325        -0.64207        -0.61999
C         -0.06219        -1.47340        -0.76823
C          1.25843        -0.77137        -0.69232
C          2.47052        -1.49128        -1.21845
C          3.77300        -0.75234        -1.25472
C          5.00982        -1.51764        -0.83267
C          6.25944        -0.79731        -0.44103
C          7.56428        -1.54843        -0.48247
C          8.85710        -0.79431        -0.53041
C         10.19763        -1.52857        -0.41124
C         11.13545        -0.82446         0.54810
C        -10.08687        -2.76906         0.20319
C         -8.89425        -3.57583         0.13190
C         -7.75256        -2.92912        -0.60308
C         -6.31447        -3.16707         1.03110
C         -5.00043        -2.58748         0.64610
C         -3.74149        -3.39930         1.00032
C         -2.49859        -2.70192         0.42925
C         -1.22056        -3.50327         0.38951
C         -0.05014        -2.90692        -0.34392
C          1.29078        -3.56488        -0.16233
C          2.45503        -2.98413        -0.94350
C          3.75380        -3.72664        -0.95012
C          5.07631        -3.00706        -1.08394
C          6.35717        -3.73935        -0.79265
C          7.51256        -3.01974        -0.12255
C          8.84867        -3.73134        -0.25432
C         10.03184        -3.02245        -0.19207
C         -8.85537        -4.88537         0.57218
C         -7.65904        -5.70422         0.76285
C         -6.38743        -5.14787         1.41028
C         -5.10871        -5.60555         0.67252
C         -3.81334        -4.86819         0.59070
C         -2.55243        -5.72755         0.87409
C         -1.22113        -4.96988         0.70271
C          0.07045        -5.81992         0.62994
C          1.32233        -4.99554         0.26433
C          2.57545        -5.80172         0.07060
C          3.80530        -5.14960        -0.47528
C          5.09098        -5.86214        -0.25925
C          6.34522        -5.05757        -0.03140
C          7.60695        -5.89449        -0.12213
C          8.81653        -5.16452        -0.23255
C         -7.62168        -7.06246         0.59819
C         -6.37499        -7.85714         0.78959
C         -5.06722        -7.11258         0.74153
C         -3.89005        -7.77683         0.08519
C         -2.59252        -7.00361         0.03714
C         -1.36112        -7.73455        -0.39561
C         -0.01580        -7.09078        -0.21173
C          1.22883        -7.89992        -0.36210
C          2.53175        -7.28312         0.03701
C          3.79273        -8.02141        -0.40210
C          5.02017        -7.28835         0.21915
C          6.31069        -8.03572         0.31273
C          7.55070        -7.28283         0.04872
C         -6.31390        -9.32417         0.52746
C         -5.15187        -9.98798         0.34222
C         -3.87924        -9.29697        -0.00131
C         -2.58401        -9.94399        -0.08745
C         -1.39725        -9.25026        -0.72064
C         -0.17019        -9.97720        -0.21256
C          1.20390        -9.41330        -0.56128
C          2.45830       -10.07566         0.01739
C          3.68557        -9.47882         0.01750
C          4.96956       -10.14790         0.23442
C          6.17376        -9.51422         0.25866
O          3.09386        -1.15191        -2.47374
O          1.59663        -3.90360         1.21439
O         -2.35150         1.62779         1.98097
O          5.97024         1.08386        -2.04304
O          0.27784         1.68233         1.65791
O         -6.33209        -5.03992         2.64294
O          0.69379        -7.10538        -1.48188
O          8.20457        -1.25626        -1.76329
O          4.52051        -5.84328        -1.58738
O         -0.24639        -2.54224        -1.74261
O         -7.20227        -3.55874        -1.51364
O         -2.36242        -1.49387         1.25569
O         -0.90000         5.23477        -0.71156
O         -4.99159        -2.34769        -1.68791
O          6.31387        -4.48659         1.34103
O          2.75195        -6.61477         1.30031
O          7.10515        -3.20146         1.28890
O         -6.00528         5.70018         1.99471
O          9.76115         1.35886        -1.28125
O         -7.55601         3.09110         1.57785
O          3.34250         7.59338         1.38330
O         -4.58286         0.40302         1.55954
O        -10.21287         2.13737        -1.83190
O         -2.11951        -6.88319        -1.32940
O          3.94581        -7.98368        -1.77837
O          5.93953         5.38388        -1.69003
O          2.83040         5.60462        -1.54733
O          4.38147         3.40495        -1.89824
O         -5.55421        -7.59785         2.00802
O          7.24311         1.69477         1.27688
O          2.84738         1.41889        -1.99600
O         -3.39568         7.96773         1.86367
O         -0.97170        -3.97699         1.74718
O          1.57692        -0.43840         0.71042
O         -4.61181        -5.10235        -0.59927
O          5.97306        -3.50508        -2.14223
O         -3.05378         5.41606         2.41079
O         -4.16485        -8.38223        -1.18604
O         -1.39799         0.48936        -1.52098
O          5.75396         8.01865        -1.51581
O         -4.61104         2.98169         2.30673
O         -0.21615         7.63211         1.87925
O          1.65251         4.43560         1.66438
O          1.15118         8.19518        -1.47303
O          5.51315        -7.52738         1.52108
O          5.31886        -1.20145         0.58218
O          2.86502        -3.71433        -2.12246
O         -5.83146        -2.28861         1.83927
O         -3.03875        10.64044         1.59472
H         -3.20141         9.85320         2.16679
O          5.62168         3.79301         1.44039
H          5.66758         2.92406         1.90001
O         -8.17493         3.73469        -2.00684
H         -8.69406         3.08303        -2.53611
O         -3.59783        -3.42034         2.42354
H         -3.28431        -2.53101         2.70906
O         -5.78266        -1.72392        -2.73740
H         -6.53027        -2.38417        -2.80527
O         -2.94313         8.77715        -1.59943
H         -2.78195         9.55925        -2.16895
O          3.68618         9.80967        -1.53933
H          2.88708         9.33084        -1.87251
O         -2.65788        -6.14255         2.24221
H         -2.71027        -5.32884         2.79666
O         -4.77179         6.64936        -1.26373
H         -4.26178         7.33724        -1.75621
O         -9.46219         5.01968         1.16766
H         -8.85170         4.56725         1.79733
O          8.48085         7.87787         0.92342
H          9.38625         7.50910         0.91200
O         -3.77920        -0.08338        -1.89849
H         -4.02205        -0.79528        -2.53170
O          1.23244        -9.72894        -1.97138
H          0.52598        -9.19771        -2.41503
O          8.55041         3.67147         2.27914
H          8.20306         2.80399         2.58973
O          0.24836        -6.30892         1.96977
H          0.41812        -5.52967         2.54480
O         -0.96097         3.75500         2.60995
H         -0.98903         2.86395         3.02545
O         10.84254        -1.43071        -1.70831
H         10.13585        -1.50206        -2.38938
O          3.28836         2.41249         1.38524
H          2.98902         3.05411         2.07164
O         -1.49926        -9.35765        -2.18106
H         -2.07181        -8.61135        -2.47843
O         -6.38078         8.33786         1.62151
H         -6.41094         7.51267         2.16402
H         11.93704        -1.42513         1.00351
H         11.89522         0.96831         1.37690
H         10.80856         3.14876         1.31828
H          9.66836         5.56718         0.64741
H          8.25861         7.49567        -1.11571
H          7.14319         9.85943         0.87401
H          5.05017        11.10079         0.87744
H          2.53722        11.17681         0.77359
H         -0.00846        11.24057         0.36530
H         -2.37360        11.07139        -0.30347
H         -4.81806        10.83744        -1.18817
H         -6.96614         9.76265        -0.83299
H         -8.28876         7.66200        -0.56695
H         -9.46842         5.65820        -0.79491
H        -10.89012         3.52884        -0.33241
H        -12.21728         1.30000        -0.02285
H        -12.20571        -1.13864         0.33883
H        -11.02360        -3.23873         0.54226
H         -9.81015        -5.34133         0.88990
H         -8.49406        -7.59283         0.18412
H         -7.24751        -9.89542         0.64554
H         -5.15649       -11.08683         0.28508
H         -2.49346       -10.99902         0.20915
H         -0.24658       -11.07751        -0.28887
H          2.38108       -11.14521         0.27300
H          4.95544       -11.24782         0.29053
H          7.09382       -10.11486         0.32749
H          8.48927        -7.85427        -0.03157
H          9.77242        -5.70979        -0.24957
H         10.97258        -3.59650        -0.20341
