         477
 CSIRO Nanostructure Databank - Neutral Graphene Oxide Data Set
C         28.08307        27.32119        -1.44937
C         27.91340        28.66423        -0.76324
C         26.70087        29.44969        -1.19867
C         27.94132        31.59654        -1.19143
C         26.69705        30.78955        -1.28922
C         27.91383        33.12180        -1.13507
C         26.67565        33.91362        -1.15084
C         27.93814        35.99622        -0.81597
C         26.70606        35.26573        -0.97266
C         27.96156        37.44418        -0.73566
C         26.76232        38.19665        -0.62030
C         28.00042        40.29869        -0.49156
C         26.78439        39.57077        -0.47752
C         28.03093        41.74476        -0.31013
C         26.87735        42.51171        -0.37006
C         28.05029        44.57495         0.19265
C         26.90553        43.92563        -0.20445
C         28.07668        46.01048         0.33983
C         30.56149        27.36846        -1.25112
C         29.26660        26.69749        -1.57381
C         30.46563        28.78176        -0.80663
C         29.16717        29.49346        -0.79534
C         30.40725        31.59436        -0.49484
C         29.17583        30.86267        -0.78113
C         30.30194        33.06514        -0.27866
C         29.12068        33.83468        -0.67499
C         30.44164        35.94699        -0.69679
C         29.13789        35.23693        -0.67885
C         30.47366        37.45889        -0.81480
C         29.18756        38.17848        -0.72530
C         30.50408        40.33940        -0.88342
C         29.21018        39.58253        -0.62582
C         30.50004        41.75414        -0.33197
C         29.31051        42.39839        -0.07275
C         30.55476        44.54180         0.56222
C         29.24757        43.74531         0.62961
C         30.53948        46.06006         0.58886
C         29.21430        46.71878         0.55264
C         33.47113        25.16106        -2.08477
C         32.24687        25.71831        -2.10588
C         32.97624        27.27642        -0.33852
C         31.78275        26.50703        -0.89835
C         32.86168        28.69014         0.09146
C         31.58673        29.44444        -0.09467
C         32.81893        31.59740         0.17845
C         31.57939        30.92484        -0.16917
C         32.83719        33.04695        -0.28559
C         31.57810        33.82898         0.02763
C         32.84742        35.97161         0.00217
C         31.64355        35.27176        -0.22305
C         32.85681        37.43585         0.00003
C         31.70848        38.17001        -0.39200
C         32.91486        40.27564        -0.10567
C         31.72691        39.57399        -0.41470
C         32.98304        41.72865        -0.25758
C         31.77887        42.45300        -0.27367
C         32.70764        44.74874        -0.53178
C         31.71748        43.90287        -0.09006
C         32.89506        46.13291        -0.19577
C         31.76103        46.82736         0.20322
C         32.97286        48.93596         0.17137
C         31.80915        48.26262         0.33619
C         35.68774        23.17103        -1.08138
C         35.10679        24.31595        -0.43072
C         34.30804        25.33540        -0.89612
C         35.32498        27.30954         0.51132
C         34.17916        26.62468        -0.18423
C         35.30300        28.68701         0.65876
C         34.16279        29.47287         0.03193
C         35.16687        31.66725         1.01665
C         33.98084        30.91278         0.45878
C         35.31337        33.04449         0.42206
C         34.10685        33.82108         0.03511
C         35.18034        35.92977         0.93083
C         34.02510        35.26085         0.32571
C         35.16628        37.44734         1.11118
C         34.00164        38.14455         0.42969
C         35.22262        40.25445         0.97949
C         34.02460        39.54423         0.38701
C         35.35265        41.66916         0.49596
C         34.32334        42.32915        -0.13293
C         35.54210        44.52362         0.00060
C         34.55102        43.71209        -0.52630
C         35.52583        45.97028         0.07342
C         34.26499        46.75600        -0.27592
C         35.41582        48.92014         0.65510
C         34.26453        48.25490        -0.08240
C         35.70241        50.34314         0.23208
C         37.90538        23.13461         0.21559
C         36.88037        22.62078        -0.68666
C         37.88166        24.48735         0.74367
C         36.65608        25.20444         0.86620
C         37.76700        27.29507         1.32357
C         36.53526        26.58651         0.90123
C         37.70374        28.76026         1.59919
C         36.34479        29.46610         1.46820
C         37.67571        31.57070         0.86227
C         36.47364        30.90443         1.01154
C         37.73582        33.02177         0.65102
C         36.56040        33.75776         0.70139
C         37.74824        35.96053         0.66954
C         36.51776        35.19856         0.93038
C         37.69970        37.31899         0.48207
C         36.49330        38.11003         0.73479
C         37.66765        40.29969         0.18775
C         36.50095        39.47054         0.69162
C         37.84657        41.54792         1.07055
C         36.55715        42.43358         1.01878
C         37.97068        44.49322         0.73056
C         36.80280        43.71867         0.21350
C         37.91385        45.93375         0.85539
C         36.65176        46.62957         0.58151
C         37.77150        48.76256         1.51612
C         36.75181        48.14440         0.53247
C         37.91907        50.24672         1.25886
C         36.90020        50.94182         0.59371
C         40.33551        20.29308         0.39390
C         39.23320        21.02650         0.03771
C         40.16201        22.99306         1.29498
C         39.08525        22.39561         0.41546
C         40.31342        24.47938         1.17322
C         39.09919        25.18797         1.00607
C         40.28339        27.28020         1.34475
C         39.07893        26.60800         1.19188
C         40.31511        28.75554         1.47631
C         38.99228        29.54109         1.53361
C         40.14278        31.57510         0.67839
C         38.96254        30.91321         1.00051
C         40.17751        32.98355         0.34121
C         38.96852        33.69838         0.40690
C         40.17355        35.87337        -0.18632
C         38.91257        35.16276         0.17394
C         40.27100        37.30976         0.32053
C         38.94544        38.02535         0.07881
C         40.29901        40.15975         0.44613
C         38.96462        39.51088         0.04948
C         40.22955        41.65688         0.30988
C         39.09936        42.31718         0.67995
C         40.42213        44.40431         1.13115
C         39.12547        43.76263         0.84311
C         40.39981        45.89239         1.26662
C         39.09730        46.59988         1.16340
C         40.43144        48.77315         1.62775
C         39.11525        48.02775         1.52726
C         40.38907        50.24595         1.48067
C         39.10614        50.93589         1.90367
C         40.19702        53.07039         1.16694
C         39.12287        52.42023         1.65584
C         42.55795        20.09078         1.47078
C         41.47127        20.88841         1.05505
C         42.63597        22.95030         1.77794
C         41.48431        22.28781         1.27382
C         42.77282        24.42832         1.70636
C         41.53601        25.13725         1.42205
C         42.76190        27.26056         1.19303
C         41.54027        26.57351         1.32547
C         42.71793        28.63577         0.55868
C         41.48526        29.42017         0.93130
C         42.70315        31.56040         0.28311
C         41.38517        30.79716         0.51461
C         42.66387        33.03247         0.30033
C         41.43731        33.66537         0.13835
C         42.67400        35.86313        -0.04889
C         41.45255        35.06885        -0.43062
C         42.60962        37.28261        -0.38874
C         41.45483        38.04763        -0.28933
C         42.24842        40.29982        -1.12099
C         41.41162        39.51660        -0.35213
C         42.49309        41.79438        -0.92452
C         41.41039        42.45335        -0.12754
C         42.78554        44.54355         0.18373
C         41.70242        43.65799         0.75758
C         42.77152        45.96233         0.44348
C         41.64670        46.62878         0.95554
C         42.82698        48.85804         0.75274
C         41.77553        48.04908         1.46641
C         42.74086        50.26129         0.68436
C         41.49152        50.94067         1.00145
C         42.53399        53.07880         0.38452
C         41.42631        52.37926         0.82809
C         43.57209        20.68436         2.20912
C         45.50936        23.20438         2.35081
C         43.58486        22.07893         2.35684
C         45.31178        24.51404         1.86262
C         43.99044        25.16003         1.75003
C         45.21315        27.33455         1.27247
C         44.00001        26.58628         1.40068
C         45.22935        28.72441         0.93044
C         43.98432        29.45849         0.73320
C         45.18688        31.62862         0.38369
C         43.95564        30.82469         0.56071
C         45.11516        33.11464         0.52738
C         43.90960        33.78995         0.41797
C         45.01803        36.14171         0.80492
C         43.84399        35.25879         0.34515
C         45.02960        37.46728         0.04647
C         43.89102        37.88669        -0.68316
C         45.18006        39.76557        -1.54379
C         44.00210        39.02940        -1.47599
C         45.01216        42.00017        -1.42467
C         43.85497        42.49464        -0.87619
C         45.11503        44.65381        -0.49304
C         43.91224        43.89376        -0.36628
C         45.15071        46.04968        -0.25699
C         43.95620        46.74488         0.12582
C         45.10407        48.93675        -0.21065
C         43.95274        48.15119         0.25356
C         45.23121        50.34523         0.33589
C         43.88788        51.05233         0.30684
C         43.76952        52.42052         0.15538
C         47.72996        23.06087         1.46989
C         46.66174        22.45118         2.11039
C         47.68562        24.44999         1.24481
C         46.50649        25.18830         1.46910
C         47.75695        27.38493         1.08855
C         46.53047        26.69627         1.65853
C         47.71000        28.71447         0.72011
C         46.45541        29.41039         0.74500
C         47.76875        31.61204         0.60652
C         46.48120        30.85785         0.42614
C         47.70705        33.09839         0.49972
C         46.39048        33.86211         0.67595
C         47.65080        36.04399         0.17632
C         46.38709        35.37155         0.76692
C         47.98183        37.47144         0.57318
C         46.06555        38.40209         0.17069
C         47.57493        40.22097        -0.91074
C         46.25620        39.51960        -0.68328
C         47.62471        41.73797        -1.12915
C         46.36652        42.59234        -1.27555
C         47.66282        44.62376        -0.38495
C         46.39882        44.02349        -0.87367
C         47.64365        46.07008        -0.26322
C         46.39970        46.74550        -0.36409
C         47.67662        48.94220        -0.37815
C         46.41482        48.19745        -0.49675
C         47.58439        50.38529        -0.47784
C         46.42413        51.05468        -0.25717
C         50.09290        24.47572         0.34246
C         48.99102        25.13187         1.03796
C         50.29828        27.31965         0.67648
C         49.02880        26.64594         1.10115
C         50.22749        28.76251         0.21505
C         48.86692        29.38430        -0.02762
C         49.98016        31.58970        -0.76072
C         49.09866        30.88394         0.34633
C         50.16753        33.05957        -0.33998
C         48.84547        33.82228        -0.23465
C         50.20623        35.98259        -0.02193
C         48.94408        35.21794         0.41080
C         50.08595        37.34036        -0.70108
C         48.95899        38.12887        -0.09018
C         50.15395        40.27271        -0.51531
C         48.87338        39.53559        -0.57717
C         50.15063        41.69579        -0.40846
C         48.88976        42.45895        -0.69182
C         50.06211        44.56029         0.15705
C         48.82308        43.88949        -0.29002
C         50.10134        46.07191         0.09817
C         48.84966        46.79982        -0.19364
C         50.15047        48.89234         0.04931
C         48.87244        48.23125        -0.21590
C         51.25457        25.15230        -0.00149
C         52.64986        27.20712        -0.34963
C         51.43150        26.52497         0.22839
C         52.59854        28.72542        -0.38740
C         51.40325        29.39750        -0.41922
C         52.62448        31.56709        -0.70846
C         51.34296        30.80359        -1.02406
C         52.62067        33.02834        -0.72362
C         51.35974        33.72418        -0.44982
C         52.57399        35.96283        -0.92564
C         51.43904        35.21171        -0.33652
C         52.61174        37.36953        -0.80828
C         51.38938        38.11134        -0.60741
C         52.63524        40.24892        -0.34983
C         51.35704        39.51112        -0.50189
C         52.62213        41.71338        -0.73288
C         51.34834        42.39545        -0.30300
C         52.67698        44.54827         0.11291
C         51.36627        43.80454         0.11878
C         52.68300        46.03135         0.01625
C         51.39145        46.76766        -0.31198
C         51.32318        48.22434         0.08637
C         55.09756        27.38152        -0.03167
C         53.96259        26.67390         0.16842
C         55.06354        28.76264        -0.46677
C         53.84698        29.43752        -0.57629
C         55.11440        31.65534        -0.50829
C         53.81677        30.88521        -0.66375
C         55.08285        32.99298        -1.26664
C         53.77450        33.72821        -1.00052
C         55.09689        35.94509        -1.34948
C         53.76158        35.18646        -1.26942
C         55.07860        37.41180        -1.12594
C         53.87765        38.07211        -0.87607
C         55.15619        40.29608        -0.80516
C         53.92564        39.51311        -0.54910
C         55.15118        41.70682        -0.62124
C         53.91757        42.43359        -0.43408
C         55.15808        44.54687        -0.21576
C         53.92345        43.80750        -0.23282
C         55.13255        45.93849        -0.08301
C         53.90500        46.65853        -0.06283
C         56.30205        29.47478        -0.71745
C         56.32610        30.81819        -0.84253
C         56.28210        33.83461        -0.87438
C         56.29864        35.17208        -0.96232
C         56.29364        38.16510        -1.20541
C         56.32131        39.54381        -1.10663
C         56.37251        42.46119        -0.58354
C         56.37980        43.81724        -0.39295
O         28.16242        32.37686        -2.41380
O         46.99051        38.22010         1.21011
O         35.49517        24.44253         0.91736
O         30.82086        45.24973         1.81730
O         44.55638        22.62233         3.19752
O         47.93974        32.43861         1.79378
O         46.50358        34.59922         1.97439
O         49.24007        31.60836        -1.95858
O         49.31224        25.84818         2.30450
O         35.72945        35.36199         2.18633
O         34.49201        47.69923        -1.40645
O         46.50598        43.64010        -2.30023
O         48.58624        42.17376        -2.11803
O         50.56061        28.44492         1.59562
O         32.76072        32.85193        -1.68365
O         42.90873        39.60368        -2.16186
O         33.64226        44.24075        -1.43852
O         37.65994        27.83791         2.72712
O         39.80869        29.36483         2.72818
O         45.05606        40.92197        -2.31566
O         31.96203        28.91311         1.22957
O         30.64527        36.64033        -2.00861
O         45.87503        31.20696        -0.86921
O         48.31725        39.52622        -1.97470
O         35.09768        33.36229        -0.99233
O         39.77202        48.25744         2.83750
O         30.86872        28.43574        -2.20711
O         49.98793        45.37770         1.37051
O         52.11827        43.99838         1.37739
O         53.38277        39.85445         0.81932
O         45.51842        48.72478        -1.56811
O         40.50867        44.99716         2.47530
O         41.47384        42.65520        -1.56990
O         38.95468        38.75170        -1.19750
O         41.97004        31.00398        -0.85866
O         51.21319        35.84640         1.01744
O         30.74551        33.39957         1.12530
O         39.20576        35.61029        -1.23059
O         54.41420        35.51362        -2.56547
O         52.62595        26.80669        -1.77292
H         53.27763        27.37188        -2.24200
O         40.49866        39.88210         1.86598
H         39.75754        40.32484         2.35630
O         37.27241        40.73401        -1.12386
H         37.55950        40.03624        -1.75749
O         42.25001        43.10420         1.98475
H         42.02268        43.74144         2.70245
O         48.52616        29.21108        -1.40462
H         48.64037        30.08864        -1.88555
O         42.31021        47.89773         2.82378
H         41.56528        47.54884         3.36752
O         34.88564        48.97173         2.00229
H         35.63953        49.08484         2.63647
O         49.01394        35.04244         1.83021
H         49.96326        35.10654         2.09338
O         51.42152        30.59552        -2.45157
H         50.55902        30.96118        -2.80649
O         27.69665        28.34481         0.65802
H         26.94914        27.71270         0.71081
O         48.40800        33.97681        -1.60093
H         48.59218        33.09111        -2.05631
O         34.85881        31.97109         2.41390
H         34.94655        31.12695         2.92164
O         37.25924        48.42865        -0.80139
H         36.54933        48.17358        -1.43712
O         34.94561        37.68990         2.53559
H         35.36850        36.93454         3.01488
O         46.65960        26.85383         3.11892
H         47.56356        26.53505         3.35070
O         34.51781        29.56051        -1.39085
H         34.02823        30.31532        -1.78916
O         49.86409        30.90557         1.54790
H         49.47241        31.59635         2.13809
O         37.26933        48.61101         2.87199
H         37.92538        49.07769         3.44982
O         47.29918        36.22934        -1.21691
H         47.70702        35.50962        -1.76460
O         39.67369        22.76730         2.67813
H         40.31499        23.18917         3.28954
O         55.24495        32.01904         0.90180
H         55.20489        31.19251         1.42743
O         35.04695        40.34533         2.42967
H         34.97252        39.41144         2.76795
O         38.04680        41.07331         2.42099
H         37.66042        41.76741         3.01158
O         38.95472        50.74612         3.36115
H         39.85275        50.71842         3.75470
O         37.18732        43.28436        -1.12267
H         37.33282        44.07843        -1.67771
O         35.77918        29.51727         2.81827
H         36.15253        28.73677         3.29901
O         52.54752        41.67205        -2.20493
H         52.35065        42.57360        -2.53629
O         51.32376        46.73051        -1.78235
H         52.04707        47.29205        -2.13319
O         44.76826        36.45653         2.19104
H         45.19530        35.74590         2.72597
O         55.16894        32.73364        -2.68566
H         54.99006        33.58892        -3.14103
O         41.56502        34.87243        -1.86809
H         40.64563        34.83924        -2.22460
O         42.63150        28.36215        -0.88669
H         42.54058        29.24331        -1.32918
O         49.81664        37.07654        -2.10082
H         49.28233        37.82675        -2.45123
O         45.53095        50.15861         1.75913
H         45.49053        51.03410         2.19768
O         30.61264        40.46740        -2.33651
H         30.66922        39.56341        -2.71405
O         31.35521        25.55222         0.11357
H         31.35560        26.00952         0.98086
O         29.01177        43.42433         2.03048
H         29.45209        44.13724         2.55218
O         40.47966        37.18061         1.74630
H         40.65404        38.09297         2.09845
O         36.21374        42.81474         2.37043
H         35.63470        42.09740         2.73375
H         27.15997        26.78842        -1.73194
H         25.76102        28.89241        -1.34360
H         25.77263        31.31376        -1.57598
H         25.72399        33.41311        -1.37778
H         25.75745        35.81714        -1.02491
H         25.79024        37.68656        -0.61015
H         25.83040        40.10093        -0.35448
H         25.91458        42.04393        -0.61635
H         25.99150        44.50327        -0.40930
H         27.11985        46.54646         0.23915
H         29.30913        25.67668        -1.98487
H         29.16253        47.81431         0.62441
H         33.82183        24.50873        -2.89854
H         31.56804        25.58448        -2.95987
H         33.00396        50.01624         0.37621
H         30.89843        48.81104         0.61280
H         35.17157        22.72787        -1.94660
H         34.90825        50.95292        -0.22291
H         37.17900        21.72298        -1.24864
H         37.04084        52.01259         0.37782
H         40.38126        19.22138         0.15202
H         38.42112        20.51730        -0.49871
H         40.17239        54.16330         1.03816
H         38.23115        52.98736         1.96052
H         42.54390        19.00602         1.29711
H         42.47309        54.16838         0.25242
H         44.36818        20.08732         2.67177
H         44.64002        53.02832        -0.12810
H         48.65488        22.49924         1.28429
H         46.72332        21.41562         2.46706
H         48.48476        50.94839        -0.76703
H         46.41010        52.14940        -0.36332
H         49.95927        23.44119        -0.00372
H         50.13422        49.96925         0.27315
H         52.05501        24.60164        -0.51572
H         52.24955        48.76664         0.32684
H         56.07653        26.94592         0.22015
H         54.00054        25.64003         0.54113
H         56.07750        46.49932        -0.09305
H         53.95572        47.75588        -0.13289
H         57.22235        28.88351        -0.84160
H         57.27541        31.32851        -1.06085
H         57.19300        33.31480        -0.54273
H         57.19777        35.72962        -0.65982
H         57.22876        37.63687        -1.43736
H         57.27810        40.05824        -1.27077
H         57.33126        41.93771        -0.70090
H         57.33199        44.36683        -0.37153
