         271
 CSIRO Nanostructure Databank - Neutral Graphene Oxide Data Set
C        -11.10973         0.69394        -0.85361
C         -9.89116         1.48138        -1.03073
C         -8.60535         0.76718        -1.33250
C         -7.39218         1.43547        -0.72862
C         -6.31353         0.76435         0.03357
C         -4.99636         1.52613         0.18680
C         -3.70263         0.79011         0.26010
C         -2.51140         1.48229         0.24290
C         -1.20688         0.77193         0.12579
C          0.08182         1.58422         0.26942
C          1.28201         0.74194         0.67908
C          2.45819         1.40895         0.93622
C          3.73346         0.68906         0.67129
C          5.02582         1.41127         0.67951
C          6.32182         0.64776         0.62645
C          7.59810         1.29769         1.04275
C          8.78962         0.45437         0.83672
C         10.50230         1.63051         0.08734
C         11.45562         0.68946        -0.50214
C         -9.83879         2.83602        -1.07245
C         -8.55490         3.51093        -1.51778
C         -7.32802         2.78791        -0.95597
C         -6.08560         3.51317        -0.78471
C         -4.94194         2.89918        -0.34580
C         -3.73244         3.73348         0.01193
C         -2.45250         2.94748         0.26249
C         -1.30259         3.62787         0.57390
C         -0.12390         2.82538         1.16019
C          1.21376         3.64225         1.36982
C          2.51049         2.86028         1.04512
C          3.72433         3.50872         0.95976
C          5.03222         2.78367         1.28532
C          6.34238         3.56331         1.03838
C          7.66997         2.80704         0.95718
C          8.67565         3.46988        -0.03398
C         10.02113         2.81798        -0.36446
C         -8.50068         4.97980        -1.18407
C         -7.28902         5.67472        -1.13942
C         -6.04088         4.86110        -1.46400
C         -4.72162         5.64350        -1.37340
C         -3.47113         4.91671        -0.92155
C         -2.21430         5.67030        -0.59914
C         -1.33713         5.15396         0.55254
C          0.02186         5.84332         0.57015
C          1.27646         4.98590         0.60844
C          2.54653         5.75118         0.98552
C          3.81861         4.99375         0.93373
C          5.01539         5.55257         0.14664
C          6.32961         5.00268         0.66873
C          7.60869         5.69319         0.32501
C          8.74017         4.98195         0.14847
C         -7.22895         7.04581        -0.86486
C         -5.94042         7.71222        -0.48018
C         -4.73795         7.13342        -1.19967
C         -3.42933         7.89229        -1.12856
C         -2.13982         7.15042        -0.90032
C         -0.88491         7.92268        -0.52828
C          0.07700         7.19800         0.39110
C          1.31880         7.98496         0.63100
C          2.58885         7.23752         0.82329
C          3.83256         7.88563         0.30146
C          5.02397         7.07010        -0.06648
C          6.36408         7.73801        -0.41056
C          7.51360         7.20006         0.46960
C         -5.94760         9.21973        -0.45822
C         -4.82952         9.94813        -0.57083
C         -3.49457         9.41751        -1.04275
C         -2.30058         9.99396        -0.30806
C         -1.11140         9.37414        -0.18046
C          0.10931        10.19767         0.21266
C          1.40732         9.41461         0.20884
C          2.60434        10.04020         0.12232
C          3.91592         9.38445         0.53884
C          5.16006         9.96520        -0.08757
C          6.24785         9.24977        -0.40488
C        -11.16964        -0.62793        -0.53505
C        -10.05252        -1.43821        -0.05454
C         -8.91124        -0.74129         0.60330
C         -7.58056        -1.46749         0.46378
C         -6.30632        -0.73343         0.22251
C         -5.04587        -1.35732         0.74993
C         -3.76401        -0.70253         0.29185
C         -2.48464        -1.47686         0.39342
C         -1.18766        -0.73076         0.26382
C          0.06399        -1.41103         0.63292
C          1.24881        -0.71661         0.64413
C          2.49360        -1.50275         0.61289
C          3.77808        -0.79746         0.79915
C          5.06096        -1.55205         0.64392
C          6.33200        -0.81991         0.36747
C          7.59617        -1.58922         0.27626
C          8.83210        -0.82693         0.33748
C         10.07798        -1.45079        -0.12934
C         11.27901        -0.66378        -0.45469
C        -10.00447        -2.80070        -0.09985
C         -8.92549        -3.57917         0.57690
C         -7.65263        -2.87459         0.98078
C         -6.35882        -3.66782         1.26009
C         -5.07102        -2.81265         1.11834
C         -3.77979        -3.59652         1.08350
C         -2.46931        -2.83847         1.02819
C         -1.18459        -3.61218         1.07624
C          0.16432        -2.90637         0.92136
C          1.17158        -3.49220        -0.07583
C          2.49134        -2.80591         0.21356
C          3.73127        -3.49344        -0.22970
C          5.04218        -3.06436         0.41566
C          6.28991        -3.62449        -0.24604
C          7.54144        -2.90141        -0.13767
C          8.77016        -3.54670        -0.72012
C         10.04026        -2.76788        -0.51446
C         -8.95429        -5.09701         0.39030
C         -7.59406        -5.78343         0.44151
C         -6.33845        -4.96703         0.45415
C         -5.04420        -5.68687         0.27204
C         -3.76669        -5.03913         0.70883
C         -2.46632        -5.64615         0.17939
C         -1.23274        -5.15858         0.99825
C          0.04395        -5.76441         0.38373
C          1.27855        -5.00278         0.02059
C          2.42920        -5.67838        -0.66926
C          3.67633        -4.88107        -0.78114
C          4.97502        -5.60078        -1.03927
C          6.26307        -4.92870        -0.71093
C          7.49184        -5.71489        -0.78457
C          8.79831        -5.04338        -0.36484
C         -7.53989        -7.12795         0.36269
C         -6.27408        -7.93666         0.50495
C         -5.01236        -7.15890         0.20119
C         -3.79892        -7.83511         0.16040
C         -2.53409        -7.16802         0.14987
C         -1.33294        -7.88715        -0.03081
C         -0.09988        -7.10506        -0.26674
C          1.16508        -7.80331        -0.71844
C          2.44974        -7.04978        -0.78367
C          3.67158        -7.80826        -1.00719
C          4.94202        -7.07928        -1.30094
C          6.25589        -7.86269        -1.41636
C          7.46465        -7.05988        -0.98232
C         -6.26724        -9.24677        -0.25399
C         -5.11368        -9.91829        -0.39358
C         -3.83022        -9.32293         0.07114
C         -2.53424       -10.06003        -0.11549
C         -1.28446        -9.28150        -0.24133
C         -0.04081        -9.94057        -0.48873
C          1.15969        -9.27027        -0.63428
C          2.47327       -10.00272        -0.55197
C          3.70534        -9.16382        -0.77131
C          4.98159        -9.84169        -0.60100
C          6.16862        -9.22184        -0.77199
O          4.55036        -1.21893         1.98762
O         -4.79750         6.55214        -2.52888
O          4.88544        -6.13564        -2.42098
O         -6.14016         4.49710        -2.88165
H         -5.82822         5.28211        -3.39290
O         -9.01833         0.27159         1.27383
O         -2.30212         4.79631        -1.76467
O         -3.75084        -4.64867         2.10812
O         -5.06102        -1.75658         2.14939
O          4.29395         1.25965        -0.56807
O          8.58018        -3.58120        -2.22168
O         -6.92589        -1.48403        -0.85329
O          1.92801         7.84819         1.98384
O          0.81233        -3.04402         2.20698
O          6.41627         0.13245        -0.76043
O          4.86506         4.94750        -1.15802
H          4.25348         5.51422        -1.68107
O         -1.77162        -3.00912         2.29330
O          4.03471         7.45699        -1.09385
O          0.39281         2.10818        -1.05003
H          0.21404         1.38963        -1.70076
O         -3.23016        -1.43572        -0.86264
O          8.97781        -5.20559         1.04615
H          8.19033        -4.84162         1.50202
O          9.95276         1.08484         1.26843
O          3.32136         5.49722         2.22810
O          3.64306        -3.68690        -1.68213
O         -2.57063         7.48633        -2.23771
O         -1.10373        -0.07398        -1.06016
O          7.83086         2.13575         2.23547
O          6.37496         4.62650         2.08097
O          1.13942        -5.63184         1.34009
O         -2.26155        -5.14866        -1.16083
H         -2.98411        -5.46903        -1.74089
H          0.11959        -2.97486         2.90035
O         -0.01291         8.00092        -1.77497
O          1.47961         4.67871        -0.80929
H          1.04004         3.81361        -1.03194
O         -5.94512         1.39994         1.30503
O          7.92734         3.31008        -1.28504
H          7.93718         2.36547        -1.55075
O         -8.55806        -0.17464        -2.10310
O         -8.69479        -3.10865         1.95571
O          0.23177        -7.18639        -1.69186
O          0.01787         6.69822        -2.38313
H          0.69640         6.18455        -1.86475
O          1.25415         3.94143         2.77976
H          2.10209         4.42526         2.96395
O         -5.68095        -4.93742        -0.85323
O         -0.06918        10.73470         1.53578
H          0.02795        10.00388         2.18092
O          4.97639         2.55137         2.71526
H          5.31936         3.36478         3.15323
O          8.47610        -2.21467        -2.68171
H          7.50011        -2.06862        -2.74071
O         -0.56864         2.31738         2.42958
H         -0.06650         2.80027         3.13037
O          0.77508        -3.17239        -1.42057
H          1.54535        -3.35046        -2.00880
O          1.81168       -11.79825         0.81819
H          1.54364       -11.84173         1.76815
O          7.19417         7.51467         1.82526
H          7.67587         6.90577         2.42155
O         -9.56622        -5.39665        -0.87311
H         -8.94182        -5.15555        -1.58862
O          5.03683        -3.70781         1.71981
H          4.64406        -3.06372         2.35847
O         -1.30840        -5.69864         2.31600
H         -2.02176        -5.21199         2.79356
O          6.46365        -8.13712        -2.83417
H          6.15630        -7.33173        -3.31279
O         -8.56059         3.39408        -2.97105
H         -7.68775         3.75347        -3.28048
O          4.04036         9.60920         1.96461
H          3.26822         9.17083         2.39643
O         -3.18247       -10.02185         1.19211
O          2.62688       -10.58578         0.79658
O          6.69461         7.34530        -1.75742
H          5.90445         7.51703        -2.31402
O         -1.97540         5.61515         1.77547
H         -1.55198         5.16066         2.53339
O         -3.36131         9.93679        -2.39423
H         -2.79902         9.28974        -2.88411
O         -6.39734        -4.10012         2.62491
H         -6.28930        -3.31102         3.19807
O         -5.69573         7.30849         0.92075
H         -6.43623         7.64724         1.46713
O         -6.21215        -8.28475         1.92664
H         -5.41471        -8.84045         2.06642
O         -4.13429         4.33091         1.27903
H         -4.45657         3.61614         1.86857
H         12.08487        -1.26914        -0.90293
H         12.35849         1.08228        -0.99537
H         10.46419         3.22667        -1.28659
H          9.70182         5.49254        -0.01464
H          8.48390         7.68492         0.16535
H          7.13103         9.77786        -0.79916
H          5.19566        11.06254        -0.17662
H          2.62534        11.12179        -0.08757
H          0.19370        11.07483        -0.47759
H         -2.35163        11.06945        -0.07256
H         -4.88841        11.04286        -0.46513
H         -6.89537         9.71337        -0.18825
H         -8.17043         7.58761        -0.67765
H         -9.44370         5.52846        -1.03192
H        -10.74114         3.45017        -0.92271
H        -12.05627         1.21002        -1.08282
H        -12.15106        -1.12692        -0.57697
H        -10.80801        -3.37638        -0.58449
H         -9.61690        -5.54031         1.17656
H         -8.48404        -7.69456         0.32465
H         -7.21932        -9.68224        -0.59288
H         -5.08790       -10.91561        -0.85844
H         -2.55230       -11.06815        -0.58436
H         -0.03251       -11.04104        -0.47707
H          2.48479       -10.86025        -1.27854
H          4.94794       -10.87729        -0.23184
H          7.10789        -9.76316        -0.58562
H          8.41588        -7.61465        -0.94261
H          9.66285        -5.53973        -0.86905
H         10.95132        -3.22212        -0.93645
