         244
 CSIRO Nanostructure Databank - Neutral Graphene Oxide Data Set
C          1.57534         2.32420        -2.52974
C          1.43186         3.63637        -2.15939
C          2.72938         1.56213        -2.19668
C          2.39939         4.26433        -1.25305
C          1.20999         6.47696        -0.74259
C          1.24281         7.72572        -0.20349
C          2.43888         5.76620        -1.13300
C          2.47834         8.43723         0.03444
C          1.22408        10.59595         0.72536
C          1.23084        11.94598         0.81332
C          2.51426         9.80696         0.71597
C          2.46358        12.72196         0.83629
C          1.21171        14.95836         1.11149
C          1.18997        16.29210         0.85598
C          2.48532        14.17555         1.30989
C          2.37532        17.05551         0.55570
C          2.38135        18.43468         0.34570
C          3.81667         2.13333        -1.53595
C          3.67775         3.49379        -0.97753
C          5.04461         1.44265        -1.35211
C          4.90631         4.20999        -0.55968
C          3.74916         6.44386        -0.78125
C          3.67927         7.81231        -0.21749
C          4.92473         5.61289        -0.38666
C          4.97377         8.51191        -0.08690
C          3.63546        10.64621         0.09180
C          3.65239        12.07601         0.58551
C          4.97230         9.95024         0.23614
C          4.92395        12.76966         0.61779
C          3.69272        14.89640         0.75021
C          3.62327        16.31081         0.37863
C          4.89249        14.21734         0.60234
C          4.95188        17.12944         0.29363
C          3.56148        19.16815         0.12302
C          4.86345        18.62258         0.20880
C          6.13986         2.04021        -0.71328
C          6.06932         3.43791        -0.31411
C          7.36257         1.35647        -0.50054
C          7.13730         4.01936         0.39997
C          6.00706         6.20712         0.31103
C          6.24658         7.68177         0.23199
C          6.93342         5.31077         0.87929
C          7.39935         8.43260         0.73458
C          6.14171        10.62629         0.43117
C          6.13477        12.07658         0.57076
C          7.47649         9.90121         0.32899
C          7.39084        12.80128         0.57739
C          6.14052        14.94116         0.49485
C          6.15219        16.35037         0.61645
C          7.37411        14.23378         0.50805
C          7.39181        16.95941         0.90829
C          5.98461        19.43761        -0.09321
C          7.32282        19.06426         0.23092
C          8.50807         1.97252         0.03170
C          8.45824         3.32781         0.71573
C          9.74042         1.31666        -0.02691
C          9.72742         4.17915         0.39526
C          8.83209         6.37999         1.17210
C          8.68827         7.85675         1.31622
C          9.75475         5.65470         0.49407
C          9.90664         8.57673         0.80552
C          8.58287        10.67478         1.09681
C          8.61173        12.12517         0.67760
C          9.90164         9.97680         0.86369
C          9.84899        12.82856         0.55679
C          8.60839        14.94847         0.46333
C          8.60855        16.36461         0.62639
C          9.83796        14.24388         0.40148
C          9.86118        17.21146         0.64177
C          8.52832        19.27874        -0.41579
C          9.77374        18.56893        -0.15147
C         10.95341         2.04591         0.09947
C         10.89415         3.50737         0.11858
C         12.18105         1.39003         0.12346
C         12.13920         4.21348        -0.39779
C         10.89872         6.42978        -0.14905
C         11.03323         7.86510         0.35873
C         12.21319         5.67325         0.09930
C         12.27552         8.56022         0.25590
C         11.10542        10.68485         0.65291
C         11.09302        12.12749         0.57668
C         12.30736         9.95559         0.48948
C         12.30893        12.83548         0.32662
C         11.06017        14.99274         0.21712
C         11.06431        16.39706         0.23118
C         12.27293        14.22721         0.08634
C         12.34487        17.16829         0.11653
C         10.93984        19.16547        -0.55163
C         12.23606        18.43372        -0.75926
C         13.43128         2.09197         0.15198
C         13.44500         3.50817        -0.06260
C         14.62996         1.40671         0.39540
C         14.66248         4.20348        -0.11267
C         13.43219         6.41405        -0.47759
C         13.50792         7.85522        -0.03714
C         14.70986         5.64996        -0.24025
C         14.73946         8.51365        -0.10000
C         13.61380        10.67730         0.66917
C         13.55978        12.12689         0.25249
C         14.81040         9.94761         0.10581
C         14.76701        12.79845         0.00132
C         13.49702        14.88455        -0.36533
C         13.50401        16.39057        -0.45678
C         14.78454        14.20294        -0.26159
C         14.78686        17.09168        -0.44850
C         13.53414        19.21079        -0.60614
C         14.74530        18.54271        -0.48930
C         15.87201         2.09005         0.39311
C         15.89925         3.48585         0.08301
C         17.09000         1.41416         0.66665
C         17.14547         4.16185         0.00368
C         15.91302         6.33836        -0.30172
C         15.96278         7.77120        -0.33114
C         17.15172         5.54155        -0.63005
C         17.22257         8.44766        -0.32722
C         15.98512        10.64004        -0.08240
C         16.01655        12.08458        -0.06099
C         17.22992         9.94330        -0.56532
C         17.22586        12.78334        -0.20738
C         15.98502        14.91979        -0.37391
C         15.98223        16.36766        -0.46598
C         17.23658        14.21573        -0.29950
C         17.23612        17.06844        -0.44989
C         16.01880        19.21915        -0.53091
C         17.21278        18.52237        -0.52532
C         18.30101         2.10452         0.69627
C         18.32316         3.49214         0.35046
C         19.54982         1.41022         0.98242
C         19.57914         4.24832         0.56221
C         18.46813         6.31226        -0.48259
C         18.44110         7.76893        -0.33675
C         19.75077         5.59328        -0.04405
C         19.67119         8.39656         0.32507
C         18.46913        10.66792        -0.10208
C         18.48048        12.05355        -0.09515
C         19.65105         9.92476         0.34554
C         19.72626        12.80228        -0.03962
C         18.45670        14.93431        -0.30713
C         18.44049        16.36012        -0.36092
C         19.71886        14.21400        -0.23170
C         19.72765        17.11929        -0.14651
C         18.47344        19.20831        -0.70446
C         19.66902        18.54077        -0.66417
C         20.74325         2.04174         1.08174
C         20.83756         3.51093         1.00482
C         22.10896         4.20689         0.81166
C         20.99735         6.31900         0.22029
C         21.00498         7.78499        -0.20912
C         22.13690         5.57703         0.56649
C         22.21577         8.55852         0.26381
C         20.95485        10.68299         0.45600
C         20.96163        12.11000         0.06369
C         22.20477         9.87846         0.48847
C         22.16387        12.80729        -0.14322
C         20.95025        14.90803        -0.39865
C         20.95683        16.35569        -0.58937
C         22.15564        14.17592        -0.38313
C         22.06648        17.04713        -1.00377
C         20.90599        19.19628        -1.00565
C         22.05564        18.47476        -1.16398
O          7.39536        18.26931         1.40232
O         19.95981         4.22771         1.96984
O          7.80504         5.73708         1.89721
O         20.12420        10.44332         1.65472
O          2.59106         3.58783         0.03147
O         19.40575         5.73653        -1.49075
O          3.27460         6.36794        -2.17131
O          5.89338         8.13666        -1.16286
O         13.25958        15.60762        -1.64869
O          4.29967        16.57275        -0.89598
O          2.88083         9.56692         2.10507
H          2.10420         9.18549         2.56462
O         10.59880         6.52930        -1.55385
H         11.42599         6.76238        -2.03388
O          7.88239         9.95470        -1.07168
H          7.26195         9.36130        -1.56388
O         16.98379         5.29064        -2.06696
H         17.87936         5.07544        -2.41818
O         12.36738         5.64287         1.53349
H         13.19486         5.16198         1.74829
O         10.07201        17.65605         2.02798
H          9.25103        18.14193         2.28039
O         17.22891        10.07074        -2.03436
H         16.37646         9.71207        -2.36036
O         11.99762         4.14707        -1.83842
H         12.63205         4.79012        -2.23557
O         12.74056        17.57133         1.45248
H         11.91821        17.79629         1.95336
O         19.86425        17.24085         1.31819
H         20.68547        17.74937         1.48838
O          8.66202         8.07919         2.78093
H          8.06180         7.39316         3.15114
O          3.35288        10.69302        -1.33373
H          4.06821        11.20021        -1.77115
O         13.83093        10.69390         2.13575
H         14.68890        11.14175         2.29757
O         21.03991         7.85946        -1.65256
H         20.44805         7.14427        -1.99667
O          8.49287         3.05585         2.14330
H          8.40183         3.92494         2.59612
O         13.29238         6.47215        -1.95617
H         14.17373         6.71228        -2.31807
O          8.25967        10.71109         2.50601
H          8.41922         9.80578         2.87891
O         12.18453        17.98175        -2.14642
H         12.11124        18.77185        -2.72064
O         19.54712         7.95331         1.70200
H         19.80237         8.71933         2.27143
O          2.67103        14.10639         2.77120
H          3.46070        13.54887         2.93954
H          0.81424         1.85999        -3.17354
H          0.61484         4.24666        -2.57043
H          2.80851         0.52936        -2.56585
H          0.25476         5.93532        -0.81163
H          0.29412         8.20150         0.08298
H          0.26489        10.06083         0.79576
H          0.27283        12.47863         0.90393
H          0.26106        14.44895         1.32626
H          0.22514        16.82289         0.83748
H          1.42675        18.98052         0.38502
H          5.12647         0.40259        -1.70257
H          3.47200        20.25223        -0.04146
H          7.45665         0.32578        -0.87820
H          5.79950        20.39003        -0.61490
H          9.78377         0.25826        -0.32857
H          8.53206        19.94976        -1.28919
H         12.19884         0.29033         0.16527
H         10.88754        20.19305        -0.95252
H         14.60865         0.32515         0.59418
H         13.52918        20.30494        -0.73631
H         17.06850         0.33775         0.89263
H         16.03410        20.31746        -0.60353
H         19.50400         0.31523         1.08281
H         18.45325        20.27981        -0.95934
H         21.66901         1.46565         1.22830
H         23.04924         3.64870         0.92217
H         23.11625         6.07758         0.57379
H         23.17694         8.02503         0.31522
H         23.13887        10.38823         0.77112
H         23.12429        12.27643        -0.09338
H         23.11522        14.69371        -0.51486
H         22.99431        16.51558        -1.25911
H         20.89167        20.27721        -1.21017
H         22.98527        18.97512        -1.46878
