         314
 CSIRO Nanostructure Databank - Neutral Graphene Oxide Data Set
C         30.33621        57.20436        -0.51303
C         30.29492        58.59391        -0.63632
C         29.12333        59.35937        -0.38556
C         30.34341        61.47218        -0.60514
C         29.15757        60.75470        -0.40017
C         32.75025        52.91546         0.05820
C         32.77946        54.33183        -0.09733
C         31.58900        55.04871        -0.29206
C         32.79034        57.14932        -0.62896
C         31.57191        56.46969        -0.51290
C         32.84288        58.56881        -0.98245
C         31.51284        59.33583        -1.01723
C         32.79466        61.46540        -0.96023
C         31.56532        60.80308        -0.85839
C         35.11058        48.58558        -0.42243
C         34.75983        49.73292         0.24130
C         33.74071        50.71740        -0.01970
C         35.26646        52.83980         0.13403
C         33.89274        52.10634         0.20143
C         35.21844        54.36664         0.28676
C         34.04806        55.02946        -0.04769
C         35.15451        57.28787         0.11310
C         34.11048        56.43654        -0.57887
C         35.22583        58.71617        -0.26027
C         34.06955        59.35022        -0.73874
C         35.26914        61.47820        -0.76502
C         34.04597        60.77431        -0.87885
C         37.95105        44.47190        -0.64009
C         37.86936        45.88679        -0.39783
C         36.61694        46.49761        -0.36183
C         37.76050        48.70642         0.07432
C         36.47521        47.95387        -0.32607
C         37.75648        50.12323         0.52265
C         36.64933        50.77948         0.91008
C         37.71530        53.02596         0.76943
C         36.46336        52.24894         0.90829
C         37.69353        54.49394         0.59117
C         36.45547        55.11222         0.43433
C         37.65975        57.37212         0.60172
C         36.40926        56.58645         0.56167
C         37.61734        58.75700         0.38669
C         36.43089        59.43239        -0.06335
C         37.71190        61.54167        -0.40370
C         36.46890        60.83151        -0.40611
C         40.51241        40.30962        -1.29238
C         40.45860        41.67420        -0.96502
C         39.22600        42.37961        -0.96140
C         40.43065        44.50788        -0.57425
C         39.15409        43.76653        -0.71088
C         40.39417        45.97402        -0.24866
C         39.08089        46.64398        -0.09576
C         40.19010        48.69954         0.82759
C         39.02828        47.96809         0.29379
C         40.19673        50.06572         0.92637
C         39.05753        50.81602         0.22674
C         40.18751        53.07054         0.99083
C         39.00394        52.32020         0.51058
C         40.11932        54.54790         1.18448
C         38.90101        55.22243         0.86897
C         40.13321        57.33732         0.78794
C         38.90297        56.66105         0.78518
C         40.14782        58.80535         0.70990
C         38.84546        59.56046         0.52638
C         40.16922        61.58651        -0.14012
C         38.91472        60.93138        -0.03865
C         43.10509        36.16166        -2.11866
C         42.98459        37.47176        -1.58206
C         41.78061        38.22353        -1.66359
C         42.91303        40.19835        -0.71537
C         41.72134        39.55807        -1.22672
C         42.89998        41.58147        -0.40303
C         41.68399        42.36350        -0.57579
C         42.81924        44.42192         0.19831
C         41.66398        43.72984        -0.32563
C         42.76338        45.72526         0.63591
C         41.60631        46.61247         0.37626
C         42.59880        48.55998         1.89074
C         41.49396        47.97879         1.01174
C         42.54270        50.09082         2.12174
C         41.16471        50.79174         1.85297
C         42.59119        53.06892         1.65215
C         41.31130        52.30807         1.59748
C         42.61200        54.51570         1.33783
C         41.35060        55.23008         1.25388
C         42.60248        57.33233         0.97782
C         41.37713        56.65076         0.99380
C         42.68433        58.67195         0.38748
C         41.37229        59.44986         0.17870
C         42.65912        61.51749        -0.22008
C         41.41215        60.91723         0.00036
C         45.75981        33.82859        -3.30773
C         44.53832        34.22594        -2.80349
C         45.35482        35.98429        -1.24811
C         44.31301        35.43750        -2.03773
C         45.31309        37.31653        -0.77838
C         44.13437        38.08720        -0.99191
C         45.31691        40.07424        -0.10246
C         44.12169        39.45407        -0.59007
C         45.25234        41.43118         0.28589
C         44.08033        42.19164         0.07501
C         45.17543        44.23851         1.06010
C         44.14830        43.70110         0.09822
C         45.18915        45.70227         1.28245
C         43.83189        46.28190         1.54215
C         45.05890        48.22201         2.27994
C         43.87207        47.77835         1.76370
C         45.06496        50.39557         2.40673
C         43.79066        50.95602         2.12391
C         45.06844        52.98210         1.51360
C         43.83707        52.30168         1.72550
C         45.07644        54.40119         1.26278
C         43.83341        55.16637         1.32074
C         45.11414        57.37064         1.25700
C         43.80745        56.67169         1.60197
C         45.12254        58.84175         0.88516
C         43.89622        59.47849         0.42259
C         45.14324        61.44035        -0.40514
C         43.89995        60.81598        -0.05036
C         47.02811        34.46191        -3.13444
C         48.42302        36.19932        -1.96195
C         47.34391        35.28465        -2.05294
C         48.49934        37.18943        -0.95859
C         46.48030        37.94204        -0.24983
C         47.84169        39.98289         0.16373
C         46.57647        39.33583        -0.05664
C         47.78482        41.34465         0.74316
C         46.45288        42.02023         0.91914
C         47.68542        44.18345         1.53654
C         46.40598        43.45958         1.33188
C         47.64280        45.66260         1.14988
C         46.36462        46.34069         1.52748
C         47.51923        48.52329         1.86562
C         46.37429        47.73037         1.92022
C         47.48343        50.02036         1.53686
C         46.28519        50.88568         1.94109
C         47.54456        52.90461         1.31758
C         46.29681        52.24719         1.53481
C         47.53046        54.27056         0.96914
C         46.29825        55.02057         0.93742
C         47.24601        57.23308        -0.00765
C         46.28964        56.51996         0.84576
C         47.52037        58.57236         0.02597
C         46.43190        59.49777         0.41245
C         47.56514        61.23447        -0.95399
C         46.36804        60.76160        -0.35420
C         49.39462        38.25458        -0.85312
C         50.29866        40.14245         0.41752
C         49.14749        39.43140        -0.06099
C         50.28194        41.43760         0.94379
C         49.01367        42.21989         0.77019
C         50.12379        44.25308         1.20246
C         48.86608        43.50346         1.54285
C         50.07601        45.68074         1.69730
C         48.84640        46.45980         1.54252
C         50.05309        48.59225         1.84106
C         48.80791        47.83681         1.73610
C         50.03579        50.04364         1.78972
C         48.80222        50.75661         1.70232
C         50.02844        52.87657         1.60257
C         48.80365        52.17033         1.53244
C         50.01801        54.35506         1.51512
C         48.82565        54.93398         0.85192
C         50.03581        57.07259         0.26253
C         48.98042        56.07531         0.12470
C         49.93448        58.36001        -0.48883
C         48.76743        59.09952        -0.52681
C         49.99201        61.06560        -1.39628
C         48.77375        60.49048        -0.98044
C         51.43836        42.13822         1.34870
C         52.59463        44.28439         1.69200
C         51.42153        43.54248         1.51717
C         52.62391        45.71111         1.75649
C         51.34854        46.43552         1.96233
C         52.52190        48.60516         1.80038
C         51.28803        47.90868         1.87325
C         52.52136        50.03245         1.76648
C         51.27811        50.75570         1.76630
C         52.51276        52.91856         1.68063
C         51.28705        52.20232         1.69353
C         52.64679        54.44231         1.75272
C         51.30946        55.13915         1.47296
C         52.57470        57.05085         0.26946
C         51.32866        56.51916         0.84228
C         52.51374        58.25960        -0.59421
C         51.20275        58.92765        -0.97367
C         52.45119        60.95973        -1.63133
C         51.22388        60.35747        -1.35959
C         53.79204        46.44899         1.72099
C         54.97432        48.58995         1.69850
C         53.77223        47.88450         1.76575
C         54.99986        50.00950         1.65135
C         53.76158        50.71975         1.74403
C         55.08140        52.89101         1.32894
C         53.76079        52.17623         1.79216
C         54.93629        54.23426         0.73834
C         53.80503        54.99093         0.91269
C         54.99041        56.97006        -0.11736
C         53.75337        56.33962         0.34665
C         54.99204        58.37282        -0.53362
C         53.75815        59.01627        -0.79549
C         54.92509        60.90792        -1.79404
C         53.70762        60.29914        -1.40906
C         56.21435        50.67805         1.35617
C         57.38414        52.62311         0.42783
C         56.25241        52.04484         0.99202
C         57.34369        53.95458        -0.17911
C         56.06913        54.75334        -0.06964
C         57.45212        56.86004        -0.39402
C         56.13796        56.21968        -0.22970
C         57.49265        58.35218        -0.65618
C         56.19686        59.01416        -0.90295
C         57.36273        60.79958        -2.17097
C         56.15666        60.26466        -1.59061
C         58.59056        54.66222        -0.52969
C         59.79901        56.66959        -1.25885
C         58.63994        56.02214        -0.70987
C         59.83741        58.01276        -1.60659
C         58.79219        59.00951        -1.12464
C         59.71492        60.59827        -2.82734
C         58.58060        60.14998        -2.09846
C         60.93061        58.54196        -2.34231
C         60.87578        59.82487        -2.89688
O         37.06314        52.80806         2.11669
O         50.48905        57.41232         1.62848
O         54.73150        52.78112         2.71862
O         39.51314        59.47539         1.83735
O         45.32966        43.58336         2.36509
O         46.46133        35.19683        -0.94103
O         46.17728        57.10134         2.20891
O         45.98226        59.62204         1.78320
O         39.91799        52.93680        -0.46443
O         42.33680        49.11891         3.19476
O         47.05810        41.26000         2.02146
O         49.20534        42.89282        -0.58126
O         42.06145        47.81882        -0.35003
O         41.72869        52.91135         2.86370
O         48.01125        56.39836        -0.83890
O         45.07169        49.26483         3.20087
O         47.54208        37.12442         0.09397
O         56.32915        54.00743        -1.31371
O         32.15219        58.87420        -2.24317
O         51.86372        57.99532        -1.91297
O         50.59359        45.82434         3.06912
O         57.66686        57.83489         0.70666
O         37.35196        48.59642        -1.33192
O         50.49539        55.09526         2.69601
O         35.35971        57.03263         1.51984
O         41.96329        58.72938        -0.91939
O         35.54891        50.04710         1.36636
O         40.63281        45.52897        -1.62875
O         50.00087        44.16285        -0.30169
O         35.61541        52.71075        -1.21509
O         44.67305        44.06657        -1.22160
H         43.93843        44.01230        -1.86933
O         39.29982        50.63146        -1.18479
H         39.80460        51.40878        -1.51410
O         40.42193        50.73058         3.09817
H         40.90167        51.28900         3.75131
O         53.00562        54.77548         3.11796
H         52.16406        54.78946         3.63152
O         43.64836        56.78363         3.04549
H         44.54736        56.69934         3.43741
O         47.29553        49.96119         0.06260
H         48.01570        49.40711        -0.30875
O         34.57942        56.35539        -1.96767
H         34.10282        55.62056        -2.40922
O         47.61720        45.59438        -0.31379
H         48.44610        45.14265        -0.61304
O         59.38670        59.64191         0.04597
H         59.17234        59.05979         0.81203
O         43.41847        45.75939         2.86877
H         43.97753        44.97640         3.08068
H         29.40603        56.65954        -0.29209
H         28.18337        58.83802        -0.15422
H         30.33586        62.56945        -0.53626
H         28.23116        61.31058        -0.19771
H         31.76019        52.42881         0.07291
H         30.63045        54.50810        -0.27694
H         32.80834        62.56582        -0.93533
H         34.50594        48.25564        -1.28176
H         32.81525        50.38447        -0.52085
H         35.27881        62.56501        -0.93731
H         37.00836        43.92513        -0.79746
H         35.71347        45.87317        -0.43728
H         37.71972        62.58713        -0.74769
H         39.59270        39.80277        -1.62135
H         38.29669        41.82166        -1.15278
H         40.17961        62.64290        -0.44965
H         42.25225        35.72794        -2.66238
H         40.88200        37.75440        -2.09115
H         42.69916        62.58505        -0.48179
H         45.73607        33.00474        -4.03969
H         43.64276        33.69974        -3.16844
H         45.10260        62.43093        -0.88306
H         47.78653        34.30303        -3.91505
H         49.13976        36.24379        -2.79397
H         47.56395        62.24293        -1.39613
H         50.34854        38.20615        -1.39939
H         51.26781        39.62464         0.35037
H         50.00475        62.12386        -1.69877
H         52.39065        41.59571         1.45007
H         53.55454        43.74651         1.73262
H         52.47006        62.00148        -1.98534
H         54.76261        45.93984         1.62591
H         55.92278        48.03768         1.62974
H         54.90309        61.87880        -2.31003
H         57.11796        50.07046         1.20142
H         58.31434        52.03904         0.36196
H         57.27479        61.70543        -2.79088
H         59.48832        54.05649        -0.72742
H         60.65174        56.02947        -1.53623
H         59.64529        61.53332        -3.40258
H         61.79720        57.89634        -2.54931
H         61.73133        60.19226        -3.48117
