         598
 CSIRO Nanostructure Databank - Neutral Graphene Oxide Data Set
C         23.41505        70.02596         2.54965
C         23.40418        71.37377         2.17819
C         22.14082        71.98771         1.89652
C         23.25751        73.86146         0.86403
C         22.08050        73.22260         1.27665
C         25.90479        65.69444         2.47261
C         25.87684        67.12316         2.60863
C         24.69554        67.81463         2.74607
C         25.92010        70.07876         2.69747
C         24.63956        69.28656         2.83839
C         25.86724        71.48384         2.23522
C         24.62992        72.12461         1.94084
C         25.66149        73.94823         0.49708
C         24.54021        73.35079         1.17358
C         28.23011        61.41522         1.83639
C         28.26390        62.80702         2.03231
C         27.08246        63.55318         2.17862
C         28.39019        65.66019         2.42050
C         27.07842        64.96597         2.29097
C         28.44188        67.13013         2.59566
C         27.16043        67.86533         2.40480
C         28.48412        70.10200         2.41513
C         27.19519        69.34987         2.41021
C         28.40589        71.45136         2.14506
C         27.12293        72.10881         2.20137
C         28.19227        73.87332         0.19716
C         26.98513        73.80283         0.91373
C         30.50432        57.17790         0.87382
C         30.52845        58.56562         0.94237
C         29.34482        59.30186         1.24769
C         30.72636        61.29920         1.64970
C         29.38680        60.66677         1.51656
C         30.83637        62.76506         1.95589
C         29.55810        63.52022         1.82399
C         30.92297        65.75213         1.89469
C         29.62684        65.00587         1.91656
C         30.97942        67.09759         2.09881
C         29.76672        67.86134         2.52743
C         31.07921        70.20003         2.51697
C         29.77079        69.37667         2.55926
C         30.94907        71.57344         1.82158
C         29.59392        72.27081         1.72070
C         30.59251        73.84837         0.10295
C         29.43205        73.34639         0.67824
C         32.92813        52.90977         0.61897
C         32.87626        54.28777         0.35317
C         31.70037        55.04443         0.62821
C         32.83850        57.15654         0.07349
C         31.67709        56.44159         0.53600
C         32.91302        58.55816         0.13319
C         31.77646        59.28191         0.68868
C         33.03137        61.43485         0.64289
C         31.87373        60.61101         1.03906
C         33.31431        62.71300         1.39405
C         32.16360        63.55717         1.98335
C         33.44610        65.72241         1.46283
C         32.11048        64.97639         1.32255
C         33.47246        67.09445         1.50360
C         32.14854        67.88795         1.50582
C         33.50614        70.04591         1.51679
C         32.30638        69.33488         2.06363
C         33.34970        71.45358         1.02780
C         32.08306        72.08512         1.02557
C         33.00418        73.98869        -0.23354
C         31.90235        73.31959         0.32577
C         35.20760        48.51066         0.82996
C         34.82287        49.73676         0.27009
C         33.99526        50.75349         0.75458
C         35.22799        52.77703        -0.24419
C         34.05337        52.11775         0.30313
C         35.22130        54.20470        -0.39350
C         34.03500        54.93381        -0.17929
C         35.22363        57.11280        -0.88030
C         33.94249        56.36884        -0.48857
C         35.28595        58.57252        -0.61008
C         34.12983        59.25653        -0.18393
C         35.51440        61.41422        -0.05007
C         34.19900        60.72768        -0.00355
C         35.65058        62.76965         0.28424
C         34.62165        63.40890         1.15835
C         36.00176        65.59285         1.08068
C         34.73108        64.87973         1.61964
C         36.00031        67.10636         1.10919
C         34.71101        67.85896         1.27058
C         35.87602        70.01627         0.71313
C         34.66482        69.22139         1.04102
C         35.74887        71.48385         0.35801
C         34.42033        72.10814         0.38870
C         35.42690        74.11020        -0.68204
C         34.28730        73.41404        -0.18134
C         37.73790        44.33251         1.02186
C         37.72676        45.75037         0.84380
C         36.51844        46.48356         0.84361
C         37.66127        48.54142         0.08606
C         36.44718        47.85479         0.51444
C         37.71881        49.93294        -0.26154
C         36.55633        50.69410        -0.54797
C         37.72226        52.81326        -0.55925
C         36.47705        52.09634        -0.45029
C         37.71974        54.21237        -0.74402
C         36.45422        54.92380        -0.71262
C         37.67883        56.99605        -1.30830
C         36.45432        56.30176        -0.89190
C         37.67179        58.52036        -1.35064
C         36.50714        59.27401        -0.82645
C         37.79629        61.39675        -0.95103
C         36.61622        60.66952        -0.58019
C         37.86622        62.77716        -0.79917
C         36.83159        63.49663        -0.09199
C         38.13941        65.58803        -0.29687
C         36.98813        64.87946         0.20454
C         38.34945        67.02742         0.02354
C         37.20808        67.83901         0.58257
C         38.04279        69.89251        -0.68522
C         37.13591        69.31293         0.31102
C         37.83022        71.28307        -1.06600
C         36.77961        72.10309        -0.48713
C         37.82182        74.17043        -1.37742
C         36.66503        73.46249        -0.88430
C         40.17863        40.03207         0.85460
C         40.18005        41.42777         0.89426
C         38.95322        42.16666         1.00775
C         40.20845        44.29590         1.11876
C         38.92293        43.57054         1.02473
C         40.20654        45.80775         0.90623
C         38.93499        46.48229         0.63176
C         40.16424        48.54394         0.06699
C         38.91119        47.84393         0.23600
C         40.18522        49.94412        -0.21868
C         38.95832        50.65547        -0.33316
C         40.17847        52.77068        -0.75149
C         38.94892        52.07146        -0.55914
C         40.18982        54.19085        -0.95454
C         38.96193        54.90619        -0.95573
C         40.17547        57.02543        -1.40611
C         38.97553        56.31267        -1.21419
C         40.16697        58.47094        -1.58290
C         38.98343        59.18056        -1.42668
C         40.19364        61.34394        -1.88556
C         38.90885        60.64205        -1.58706
C         40.26630        62.78335        -1.62802
C         38.96220        63.54158        -1.51084
C         40.34560        65.62798        -1.46319
C         39.14889        64.94807        -1.01083
C         40.43225        67.07187        -1.48336
C         39.48140        67.79792        -0.61551
C         40.33614        69.88448        -1.78385
C         39.45238        69.33077        -0.68946
C         40.18622        71.28345        -2.17036
C         38.94983        72.04136        -1.81404
C         40.25906        74.18169        -1.89940
C         39.01602        73.51504        -1.68403
C         42.63831        35.88199         1.96265
C         42.63041        37.23516         1.49655
C         41.43237        37.88281         1.20945
C         42.67294        39.92217         0.40986
C         41.34756        39.16734         0.42971
C         42.66633        41.42112         0.52746
C         41.42067        42.17015         0.76918
C         42.67118        44.31233         0.69471
C         41.46588        43.56573         0.86133
C         42.69527        45.72646         0.55747
C         41.46230        46.47854         0.54770
C         42.65217        48.61171         0.27761
C         41.40226        47.84048         0.24413
C         42.67286        49.98276        -0.22731
C         41.41720        50.65918        -0.43449
C         42.64439        52.74807        -1.03749
C         41.39320        52.03068        -0.75578
C         42.66149        54.22177        -1.08742
C         41.42929        54.91387        -1.13695
C         42.66589        57.01622        -1.56791
C         41.42595        56.32758        -1.35683
C         42.69070        58.43600        -1.85215
C         41.43330        59.16911        -1.83438
C         42.64046        61.29509        -2.33003
C         41.42838        60.55218        -1.96391
C         42.67816        62.75489        -2.15585
C         41.46708        63.45147        -1.83790
C         42.62275        65.54627        -2.46232
C         41.46472        64.89360        -1.84157
C         42.56341        67.01035        -2.75626
C         41.46319        67.74813        -2.11078
C         42.65192        69.89981        -2.64974
C         41.46239        69.19619        -2.20054
C         42.70038        71.31066        -2.55834
C         41.44598        72.06695        -2.49915
C         42.71926        74.15872        -2.24568
C         41.46546        73.52056        -2.21984
C         45.13803        33.06334         2.20697
C         43.98275        33.80764         2.47576
C         45.02784        36.01764         2.23201
C         43.84779        35.21805         2.24903
C         45.13295        37.26013         1.57479
C         43.90501        37.90966         1.24287
C         45.17663        39.91849         0.71032
C         43.93390        39.23233         0.77330
C         45.20105        41.35593         0.55671
C         43.95688        42.09157         0.83564
C         45.18197        44.23835         0.24192
C         43.96472        43.60554         0.76564
C         45.14246        45.66445         0.02226
C         43.94164        46.37808         0.30244
C         45.19662        48.54820        -0.11370
C         43.98978        47.84207         0.32828
C         45.15173        49.93769        -0.27891
C         43.89602        50.62998        -0.34516
C         45.13106        52.83581        -0.35940
C         43.93782        52.02975        -0.80075
C         45.16031        54.22581        -0.94503
C         43.90129        54.90474        -1.21342
C         45.15118        56.98861        -1.77003
C         43.88133        56.29215        -1.52056
C         45.18402        58.45938        -1.84290
C         43.92880        59.11219        -2.02619
C         45.22603        61.30818        -2.39830
C         43.93872        60.53054        -2.43443
C         45.15123        62.75355        -2.12406
C         43.92265        63.43962        -2.19021
C         45.09632        65.62288        -2.27189
C         43.94044        64.88582        -2.30664
C         45.06137        67.12705        -2.30520
C         43.87981        67.70106        -3.13182
C         45.07490        69.87702        -3.02191
C         43.85874        69.20020        -2.92979
C         45.13217        71.29162        -2.82454
C         43.92395        72.00803        -2.61273
C         45.18386        74.10291        -2.43772
C         43.93926        73.44948        -2.46048
C         46.39164        33.52135         1.75459
C         47.69759        35.65118         1.17240
C         46.79950        34.87192         1.89082
C         47.67587        37.10595         1.19635
C         46.41709        37.86161         1.30826
C         47.66255        39.96624         0.84273
C         46.39908        39.21570         0.92409
C         47.64141        41.30635         0.19014
C         46.37076        42.06909         0.32489
C         47.53395        44.09924        -0.56772
C         46.33493        43.47560         0.04267
C         47.52289        45.60951        -0.74462
C         46.33383        46.36210        -0.31542
C         47.61837        48.46275        -0.55838
C         46.39562        47.78467        -0.34175
C         47.59944        49.91378        -0.77001
C         46.36418        50.67840        -0.57373
C         47.64708        52.78459        -0.62898
C         46.40207        52.05911        -0.59526
C         47.63519        54.20965        -0.67591
C         46.37459        54.88315        -0.95335
C         47.59675        57.10006        -1.01698
C         46.44103        56.26962        -1.44455
C         47.65347        58.50570        -1.44650
C         46.43727        59.12858        -1.83322
C         47.70810        61.31647        -1.69640
C         46.50460        60.57571        -2.12737
C         47.63686        62.76218        -1.49298
C         46.33196        63.47130        -1.66850
C         47.65167        65.69574        -2.02682
C         46.36273        65.01254        -1.81429
C         47.60130        67.05754        -2.52106
C         46.38457        67.71687        -2.72962
C         47.58749        69.85136        -3.18915
C         46.31630        69.08321        -3.38379
C         47.53854        71.25088        -3.20105
C         46.38293        72.00355        -2.87123
C         47.59650        74.15461        -2.19098
C         46.42436        73.41631        -2.56074
C         48.85355        37.76327         0.84610
C         50.20131        39.91315         0.33441
C         48.98503        39.21980         0.83264
C         50.26421        41.26721         0.09727
C         48.94703        42.00435        -0.05716
C         49.90755        44.27374         0.02611
C         48.84242        43.47394        -0.23550
C         50.12396        45.60242        -0.53569
C         48.83448        46.33799        -0.86800
C         50.10922        48.43495        -0.49233
C         48.87374        47.79156        -0.66029
C         50.08591        49.89835        -0.10777
C         48.91039        50.64320        -0.69265
C         50.10583        52.79410        -0.46178
C         48.87671        52.10355        -0.53286
C         50.09787        54.21521        -0.54694
C         48.86485        54.90750        -0.63421
C         50.13392        57.12906        -0.72256
C         48.86508        56.38694        -0.61606
C         50.11245        58.54019        -1.00116
C         48.89018        59.20581        -1.34045
C         50.15853        61.39837        -1.46246
C         48.90839        60.64823        -1.50435
C         50.17532        62.77813        -1.63512
C         48.93988        63.56722        -1.52558
C         50.12062        65.66964        -2.18769
C         48.90028        65.01070        -1.92308
C         50.12051        67.09318        -2.42168
C         48.86725        67.75867        -2.73457
C         50.51611        70.14820        -2.32171
C         48.78682        69.09571        -3.18241
C         50.20783        71.43287        -1.70320
C         49.22702        72.32399        -2.23438
C         49.86749        74.44185        -1.13952
C         48.84349        73.63040        -1.78443
C         51.53858        41.88587        -0.29117
C         52.80457        44.15492        -0.46569
C         51.83152        43.22166        -0.02047
C         52.66810        45.58343        -0.36481
C         51.40732        46.31517        -0.34060
C         52.59590        48.49315        -0.34283
C         51.36409        47.72190        -0.41970
C         52.59075        49.88949        -0.30026
C         51.37442        50.64928        -0.32579
C         52.59340        52.80485        -0.58754
C         51.34171        52.04019        -0.40837
C         52.57069        54.27816        -0.47526
C         51.34225        54.96297        -0.53037
C         52.59439        57.11033        -0.46600
C         51.31986        56.39460        -0.56933
C         52.60733        58.58919        -0.71860
C         51.34526        59.28794        -1.06054
C         52.68716        61.37256        -1.42885
C         51.39718        60.65987        -1.32136
C         52.69779        62.75279        -1.74655
C         51.44797        63.56686        -1.51326
C         52.69857        65.63059        -2.00744
C         51.42122        64.86865        -2.34240
C         52.61521        67.10705        -1.95940
C         51.30813        67.79940        -2.07176
C         52.25729        69.65432        -0.66531
C         51.31331        69.19195        -1.71803
C         52.04768        71.00684        -0.03708
C         50.82052        71.69581        -0.46959
C         52.13687        74.14780         0.04173
C         50.80669        73.84927        -0.29385
C         53.84928        46.36524        -0.47076
C         55.08292        48.49274        -0.48523
C         53.86096        47.77438        -0.41124
C         55.14285        49.90036        -0.35420
C         53.87026        50.62193         0.02421
C         55.12927        52.79086        -0.20330
C         53.88918        52.05248        -0.46471
C         54.98354        54.21918         0.23682
C         53.81905        54.97865        -0.36712
C         55.10191        57.11516        -0.38873
C         53.86118        56.36055        -0.46146
C         55.12368        58.50298        -0.64732
C         53.89845        59.14991        -1.26832
C         55.19764        61.30508        -1.35636
C         53.88717        60.64795        -1.26043
C         55.24600        62.73320        -1.80734
C         53.94661        63.48791        -2.20110
C         55.21434        65.79481        -1.95520
C         53.88429        64.96953        -1.81128
C         55.08026        67.11038        -1.17232
C         53.82254        67.85489        -1.41680
C         54.58798        69.74097         0.06372
C         53.61300        69.11874        -0.67662
C         54.43434        71.10143         0.57851
C         53.21223        71.80088         0.41358
C         54.29149        73.88030         1.07523
C         53.15461        73.24786         0.54359
C         56.32087        50.64049        -0.40229
C         57.57032        52.77893        -0.07779
C         56.35332        52.07946        -0.18484
C         57.62176        54.21857         0.18392
C         56.28895        54.99590         0.28842
C         57.52746        57.12174        -0.00525
C         56.30445        56.42173        -0.06201
C         57.50746        58.53123        -0.08548
C         56.32417        59.24995        -0.44522
C         57.55702        61.42932        -0.52034
C         56.36972        60.66502        -0.69886
C         57.62198        62.79798        -0.82649
C         56.50010        63.50358        -1.49336
C         57.66859        65.77371        -0.96997
C         56.51006        65.00558        -1.57701
C         57.44687        67.16818        -0.46485
C         56.07381        67.72551        -0.47410
C         57.03552        69.74181         0.83517
C         55.85431        69.00033         0.27215
C         56.89213        71.18857         1.13998
C         55.60050        71.79478         1.06226
C         56.58566        73.88084         1.93789
C         55.48408        73.18716         1.38285
C         58.81996        55.00906        -0.06657
C         60.01283        57.13842         0.13837
C         58.80025        56.39864         0.06375
C         60.02059        58.53484         0.30166
C         58.72629        59.25187         0.28388
C         60.05853        61.39258         0.03166
C         58.74636        60.76834         0.07890
C         60.14141        62.81776        -0.26860
C         58.88175        63.55777        -0.68860
C         59.81994        65.67227         0.28710
C         58.83235        65.02706        -0.41850
C         59.77112        67.11464         0.52871
C         58.52449        67.83035         0.30682
C         59.56712        69.96728         0.98303
C         58.37656        69.12989         0.71965
C         59.38376        71.39805         1.39630
C         58.00208        71.92525         1.56996
C         58.93079        73.93508         2.69367
C         57.83741        73.26376         2.06171
C         61.20228        59.26426         0.49282
C         62.41348        61.42625         0.69716
C         61.22432        60.69270         0.44242
C         62.35384        62.84122         0.84761
C         61.20595        63.54387         0.42516
C         62.09638        65.63783         1.50795
C         60.88642        64.87454         1.02394
C         61.91840        67.01636         1.72782
C         60.81977        67.76651         1.15866
C         61.71522        69.87651         2.34322
C         60.92423        69.28524         1.17616
C         61.56871        71.21997         2.72000
C         60.58850        72.14525         2.00097
C         61.15276        73.86316         3.71437
C         60.16543        73.31246         2.88993
C         63.43636        63.57674         1.42044
C         64.55332        65.60945         2.17907
C         63.34316        64.94497         1.75395
C         64.53122        66.74208         3.00129
C         62.72267        67.69566         2.67670
C         63.84172        69.65386         3.65909
C         62.80070        69.10424         2.86210
C         63.60887        71.01984         4.14600
C         62.49753        71.80768         3.61022
C         63.48588        73.90480         4.51254
C         62.38944        73.19824         3.96637
C         65.47768        67.74367         3.28804
C         66.23678        69.83797         4.24261
C         65.13558        69.03269         3.81291
C         66.15168        71.19668         4.55643
C         64.83924        71.84092         4.67686
C         65.94230        74.04366         4.81981
C         64.74876        73.30627         4.67215
C         67.30116        72.01699         4.70202
C         67.18538        73.39730         4.86138
O         47.92842        56.92501         0.40050
O         46.12286        35.57127         2.93822
O         48.19240        41.33554        -1.16303
O         58.50357        60.16469         1.40794
O         46.11819        60.94048        -3.51966
O         30.85540        61.79845         3.03944
O         48.27962        63.22215        -0.25942
O         56.17249        68.89790         1.70967
O         55.52943        61.67545        -2.77883
O         59.90768        63.20021        -1.69284
O         63.89192        71.20017         5.56792
O         53.34080        52.31797        -1.79377
O         37.43197        57.73120        -2.56526
O         40.27062        45.20069         2.25912
O         50.32418        72.64647         0.35580
O         36.55406        66.33179         2.23145
O         27.15861        73.48687         2.29174
O         63.28167        66.92319         3.67703
O         49.65145        45.78414        -1.92353
O         42.77363        40.75706        -0.79669
O         48.72096        71.97641        -3.48064
O         34.40211        62.52290         2.33088
O         59.62334        71.04572        -0.01445
O         57.99496        66.91310        -1.81981
O         25.38277        69.84688         4.02103
O         27.13703        68.60082         1.12370
O         48.39964        50.24034        -1.98578
O         29.85273        68.57808         3.80205
O         50.90130        43.80247         0.87765
O         42.19871        66.04944        -3.80639
O         48.45304        39.88086         2.06144
O         55.20134        65.98125        -3.32460
O         43.38726        48.43081         1.53080
O         43.17222        60.82347        -3.63780
O         57.01573        54.65441         1.49780
O         46.02117        56.40143        -2.82612
O         39.59206        67.28628         0.75772
O         33.19760        61.48822        -0.80538
O         44.06246        42.87111         2.05670
O         37.75399        68.77909         1.56420
O         34.24474        56.71346        -1.88600
O         40.53006        71.61276        -3.55465
O         39.20211        61.04277        -2.98372
O         47.28927        44.69042        -1.87341
O         29.43686        64.34593         0.61204
O         46.11430        64.36066        -0.52379
O         37.82782        71.55168        -2.54897
O         43.46579        52.19604        -2.15986
O         28.48503        66.24820         3.76366
O         52.63372        58.12576         0.65091
O         31.74038        68.06121         0.16220
O         33.39005        69.67823         2.95509
O         35.42621        50.01298        -0.98112
O         61.35470        72.75879         0.99947
O         49.95324        69.80303        -3.54867
O         30.51280        72.61149         2.77894
O         53.52587        67.87802        -2.84705
O         56.99184        64.21543        -2.69089
O         36.18857        71.04303         1.70657
O         51.71507        69.77141         0.70494
O         41.05937        38.76655        -0.95188
H         41.42827        39.47850        -1.52518
O         60.19645        64.51721         2.30455
H         60.84977        64.05418         2.87369
O         31.33436        70.56874         3.87948
H         31.31640        69.75178         4.42448
O         51.44554        64.53010        -3.74385
H         52.35403        64.17431        -3.95821
O         49.84427        49.93210         1.34422
H         50.66840        49.64788         1.79371
O         40.05560        69.84928         0.53471
H         39.62729        69.34505         1.27442
O         53.90894        58.76018        -2.68687
H         54.51349        59.37244        -3.16206
O         31.92442        64.81027        -0.09797
H         31.70676        65.69742        -0.46633
O         51.50031        64.01703        -0.11213
H         51.16277        63.29366         0.45861
O         44.96541        52.99294         1.08721
H         45.76469        53.44082         1.43707
O         32.39435        63.78645         3.37626
H         33.37256        63.81356         3.52961
O         44.80818        67.55812        -0.93059
H         45.43757        67.08921        -0.34139
O         34.88150        64.78488         3.05863
H         35.40526        65.57243         3.34879
O         53.88334        50.72715         1.48827
H         54.11437        49.84554         1.84971
O         54.54546        54.04354         1.63256
H         55.37202        53.98927         2.17187
O         46.31075        68.87024        -4.83614
H         45.50725        68.33390        -5.05714
O         38.48164        63.69246        -2.89755
H         38.53869        62.79371        -3.31110
O         53.96453        63.55791        -3.66386
H         54.59223        64.30638        -3.88409
O         61.75465        69.62104         0.03357
H         61.48385        70.53290        -0.24364
O         44.12935        67.42370        -4.52424
H         43.47367        66.73412        -4.80466
H         23.18996        74.78985         0.27962
H         25.45643        74.47544        -0.44654
H         28.20692        74.40242        -0.76776
H         30.50658        74.69874        -0.58997
H         32.85774        74.95998        -0.72664
H         35.31060        75.16112        -0.98475
H         37.77553        75.26836        -1.42036
H         40.28344        75.27406        -1.76559
H         42.76970        75.24251        -2.05958
H         45.20538        75.18671        -2.24575
H         47.41598        75.21058        -1.93326
H         50.00907        75.47317        -1.49251
H         52.46425        75.18953        -0.09994
H         54.26798        74.96909         1.23002
H         56.46007        74.92705         2.25245
H         58.77695        74.96423         3.05424
H         60.93214        74.78516         4.27744
H         63.39158        74.99316         4.64320
H         65.89349        75.14060         4.86902
H         22.46170        69.47476         2.54710
H         21.22062        71.44070         2.14446
H         21.10690        73.67905         1.05142
H         24.94407        65.15811         2.49411
H         23.74469        67.26136         2.77507
H         27.25989        60.89665         1.87407
H         26.11960        63.02036         2.20033
H         29.57912        56.63281         1.11067
H         28.38318        58.76816         1.27997
H         32.04975        52.42399         1.06842
H         30.80433        54.51630         0.98554
H         34.57021        48.04341         1.59573
H         33.28212        50.52161         1.55986
H         36.77042        43.81053         1.07058
H         35.58913        45.96513         1.12258
H         39.21050        39.51503         0.94317
H         38.00444        41.60938         1.02074
H         41.68401        35.34114         2.03753
H         40.48678        37.35573         1.41000
H         45.00016        31.96984         2.20060
H         43.05570        33.24005         2.64783
H         47.04806        32.81383         1.22822
H         48.46156        35.16378         0.54817
H         49.73387        37.15968         0.57616
H         51.12792        39.31946         0.29311
H         52.27702        41.24882        -0.80156
H         53.74894        43.77816        -0.88889
H         54.81336        45.84262        -0.56570
H         56.01375        47.93205        -0.66089
H         57.27844        50.12114        -0.56048
H         58.51642        52.24941        -0.26076
H         59.77303        54.49063        -0.24816
H         60.96777        56.59256         0.14407
H         62.15275        58.72566         0.61974
H         63.33550        60.89126         0.96526
H         64.37728        63.04641         1.62706
H         65.51493        65.18795         1.85335
H         66.53924        67.54504         3.07979
H         67.23785        69.38098         4.20907
H         68.29599        71.55089         4.66165
H         68.09681        74.00162         4.96840
