         762
 CSIRO Nanostructure Databank - Neutral Graphene Oxide Data Set
C         26.24782        28.19715        -7.43932
C         25.31078        29.21361        -7.76127
C         25.73904        30.33269        -5.57591
C         24.98674        30.19948        -6.86843
C         25.00492        31.08033        -4.47058
C         24.15384        32.15664        -4.80038
C         23.74904        32.71184        -2.46204
C         23.53891        32.94923        -3.80523
C         22.98894        33.40191        -1.33146
C         22.03890        34.41264        -1.89682
C         23.04902        36.34232        -0.74703
C         22.07994        35.72728        -1.62998
C         23.05440        37.70490        -0.56364
C         22.02007        38.57972        -1.08621
C         23.14906        40.64981        -0.32092
C         22.00631        39.91975        -0.89917
C         23.02566        42.08663         0.13827
C         21.74814        42.82569         0.11374
C         22.77383        44.71653         1.30788
C         21.65238        44.05495         0.69240
C         22.59936        46.09050         1.93587
C         21.53068        46.98790         1.37587
C         22.62878        48.97640         2.28441
C         21.53513        48.33864         1.68748
C         27.37277        25.61839        -6.31947
C         27.61838        26.93673        -5.73416
C         26.73535        28.08341        -6.12063
C         26.73767        28.81286        -3.75437
C         26.36011        29.02094        -5.15633
C         26.20990        29.75800        -2.69017
C         25.30784        30.84289        -3.12923
C         25.48249        31.86552        -0.78060
C         24.69766        31.66417        -2.08194
C         25.24783        33.15366        -0.00778
C         24.00671        33.97805        -0.28940
C         25.31912        36.15056         0.31738
C         23.94715        35.47603         0.13149
C         25.34052        37.50303         0.46640
C         24.06134        38.31452         0.38408
C         25.44223        40.41279         0.91687
C         24.32152        39.79872         0.12115
C         25.19869        41.74584         1.54757
C         24.00848        42.57458         1.16923
C         25.10716        44.63991         2.13612
C         23.97269        44.02770         1.50665
C         25.07310        45.99198         2.49331
C         23.92669        46.81844         2.04361
C         25.10891        48.86806         3.03333
C         23.92494        48.30036         2.32991
C         25.29013        50.29358         3.10082
C         28.52387        24.52433        -4.44116
C         27.82980        24.49598        -5.69986
C         28.79630        25.69897        -3.74867
C         28.31787        26.95330        -4.38308
C         28.52075        28.07549        -2.18796
C         27.91377        27.99807        -3.42337
C         28.22252        29.22018        -1.32233
C         27.07112        29.97860        -1.51478
C         27.87020        31.63750         0.27527
C         26.75802        31.08528        -0.58099
C         27.75070        33.04117         0.81881
C         26.44760        33.81145         0.65365
C         27.82557        35.98047         0.86197
C         26.49252        35.32339         0.75219
C         27.85789        37.46772         0.88009
C         26.58937        38.23682         0.81041
C         27.66181        40.15467         2.14824
C         26.49418        39.54991         1.47628
C         27.64678        41.63287         2.45559
C         26.34230        42.38382         2.30064
C         27.54763        44.56417         2.93942
C         26.30731        43.85411         2.52551
C         27.29826        45.78715         3.52899
C         26.12202        46.57742         3.24754
C         28.00403        49.06886         3.43822
C         26.07184        47.98450         3.52353
C         27.78991        50.34256         2.93797
C         26.49501        50.96573         3.06304
C         31.21580        20.74402        -3.30554
C         30.13856        21.45647        -3.87749
C         30.60366        23.43322        -2.45693
C         29.86477        22.75255        -3.46131
C         30.20076        24.68248        -1.93831
C         29.50124        25.81050        -2.47632
C         30.58610        27.62452        -0.96298
C         29.55364        27.10585        -1.81504
C         30.52137        28.99235        -0.53391
C         29.30963        29.71867        -0.50469
C         30.33785        31.69674         0.58804
C         29.21447        31.02668         0.11161
C         30.32875        33.08771         0.98369
C         29.02624        33.81122         1.06845
C         30.31962        36.01209         0.93966
C         29.00069        35.29540         0.98308
C         30.35690        37.55113         1.00738
C         29.05174        38.08182         1.54880
C         30.26168        40.26615         2.17292
C         28.99913        39.46923         2.09207
C         30.23424        41.68634         2.38691
C         28.93192        42.42252         2.37252
C         30.21108        44.59940         2.95781
C         28.88927        43.93858         2.68245
C         30.31666        46.05498         3.09637
C         29.26399        46.89396         3.51651
C         30.25570        48.83684         2.47409
C         29.16269        48.25527         3.14904
C         30.14414        50.17651         1.87538
C         28.85785        50.97184         2.09555
C         30.09647        52.97152         1.34109
C         28.99357        52.42661         1.92564
C         33.12942        19.14667        -1.81894
C         33.13891        20.55347        -1.81255
C         32.01470        21.30297        -2.33136
C         33.11515        23.48300        -1.79728
C         31.77453        22.68694        -1.75144
C         33.08850        24.82531        -1.06655
C         31.90538        25.53599        -0.81154
C         33.07679        27.60757        -0.46705
C         31.84985        26.93693        -0.73144
C         33.06028        28.98125        -0.07793
C         31.77022        29.69762        -0.18550
C         32.81399        31.59229         1.18679
C         31.66356        31.08242         0.38049
C         32.75780        33.03528         1.57770
C         31.48911        33.75182         1.32191
C         32.79963        35.93452         1.63636
C         31.55272        35.22603         1.24740
C         32.68687        37.35165         2.08428
C         31.51294        38.15289         1.78162
C         32.80656        40.24576         2.01806
C         31.47222        39.52775         2.10777
C         32.73500        41.75927         2.29694
C         31.41914        42.44705         2.50283
C         32.68623        44.59375         3.06390
C         31.39553        43.86301         2.78360
C         32.77678        46.04656         2.74946
C         31.51630        46.75260         2.73820
C         32.69752        48.90419         2.20643
C         31.46749        48.13338         2.45018
C         32.62232        50.20549         1.51866
C         31.37416        50.88047         1.47051
C         32.47430        52.82040         0.46839
C         31.29887        52.21677         1.04772
C         32.41979        54.10644        -0.11817
C         35.46778        19.07526        -1.13490
C         34.25639        18.42629        -1.45542
C         35.50457        20.50106        -1.09969
C         34.31595        21.24266        -1.38539
C         35.54685        23.33216        -1.13376
C         34.34030        22.66903        -1.37165
C         35.56908        24.81705        -1.17946
C         34.29901        25.53507        -0.93891
C         35.54386        27.58132        -0.21918
C         34.30294        26.89230        -0.52673
C         35.49505        28.95707         0.26217
C         34.22713        29.62205         0.32627
C         35.37568        31.73537         1.18799
C         34.14508        30.92635         1.03393
C         35.34095        33.09637         1.45125
C         34.05490        33.80048         1.68584
C         35.27060        36.07098         1.52284
C         33.99367        35.27907         1.64266
C         35.29649        37.30752         2.42267
C         33.99054        38.05489         2.60533
C         35.27015        40.18850         2.89315
C         33.99495        39.50164         2.62973
C         35.25269        41.68519         3.01349
C         33.99794        42.44308         2.70605
C         35.29616        44.58023         3.04122
C         33.98029        43.85596         3.19351
C         35.28477        46.04005         2.67307
C         33.96879        46.70106         2.50833
C         35.14343        48.77339         1.54384
C         34.00209        48.16389         2.25002
C         35.04570        50.04757         0.97994
C         33.79040        50.79048         0.99846
C         34.85379        52.68381        -0.21670
C         33.70776        52.09597         0.41213
C         34.75977        53.97096        -0.78379
C         33.52811        54.65430        -0.74009
C         37.85259        16.18041        -0.79467
C         36.68268        16.90335        -0.94046
C         37.90320        18.99762        -0.64792
C         36.67825        18.31647        -0.89621
C         37.93962        20.44588        -0.61789
C         36.73883        21.19029        -0.84540
C         38.00622        23.31344        -0.64271
C         36.76285        22.61699        -0.87680
C         38.06500        24.73773        -0.58231
C         36.85435        25.54556        -0.87389
C         38.00467        27.63150        -0.03598
C         36.75597        26.92373        -0.34946
C         37.93351        28.94190         0.65583
C         36.66267        29.63244         0.67951
C         37.81399        31.70991         1.36499
C         36.63123        31.02848         1.07533
C         37.83880        33.14798         1.50095
C         36.56780        33.87221         1.52319
C         37.77977        36.03003         1.43244
C         36.53971        35.25551         1.64309
C         37.78220        37.55015         1.63634
C         36.58827        38.05491         2.43559
C         37.76652        40.20371         2.72818
C         36.57815        39.51958         2.68290
C         37.77041        41.66289         3.01032
C         36.52300        42.42955         2.85817
C         37.75452        44.53108         2.46415
C         36.53012        43.80282         2.76053
C         37.68527        45.92493         1.99852
C         36.49444        46.63243         2.04801
C         37.58675        48.61765         0.84982
C         36.43081        48.05586         1.63731
C         37.34828        49.81804         0.00702
C         36.15942        50.64337         0.26181
C         37.30260        52.57497        -0.78789
C         36.09163        51.92061        -0.30082
C         37.25068        53.94606        -1.19374
C         35.91779        54.53835        -1.58633
C         37.08377        56.72844        -1.87209
C         35.95302        56.04547        -1.65249
C         40.35157        14.66480        -0.43749
C         40.34276        16.06636        -0.51733
C         39.08437        16.83411        -0.56761
C         40.37748        18.91404        -0.09180
C         39.08828        18.23916        -0.47488
C         40.40092        20.40919        -0.29036
C         39.17517        21.13097        -0.42856
C         40.44114        23.24563        -0.19628
C         39.20352        22.56642        -0.42402
C         40.46958        24.65316        -0.11635
C         39.26926        25.38796        -0.26892
C         40.43954        27.40448         0.74006
C         39.29156        26.86254        -0.06297
C         40.34540        28.77643         1.33709
C         39.06628        29.51325         1.19246
C         40.37221        31.63297         1.65440
C         39.04388        30.92586         1.58629
C         40.33205        33.09154         1.36092
C         39.05740        33.82899         1.52353
C         40.41278        36.11243         1.41181
C         39.09658        35.29204         1.31315
C         40.28345        37.41249         2.20848
C         39.07430        38.13190         2.20587
C         40.27373        40.21116         2.67569
C         39.04520        39.50443         2.57355
C         40.30376        41.67591         2.60580
C         39.07588        42.45220         2.90813
C         40.20773        44.59224         2.15136
C         38.96946        43.87003         2.49888
C         40.11550        45.88588         1.43540
C         38.88016        46.50172         1.37612
C         40.00184        48.42500         0.01179
C         38.74228        47.72727         0.56020
C         39.94488        49.85234        -0.32555
C         38.64648        50.50454        -0.54126
C         39.82565        52.74045        -0.63564
C         38.55461        51.93741        -0.70117
C         39.69841        54.01819        -1.41609
C         38.44736        54.62242        -1.55239
C         39.57062        56.66912        -2.67868
C         38.40327        56.06551        -1.92128
C         39.48216        57.95900        -3.37054
C         42.76126        14.62989        -0.70503
C         41.55538        13.96051        -0.52751
C         42.80075        16.04081        -0.77190
C         41.57715        16.74491        -0.66546
C         42.87265        18.95490        -0.73435
C         41.55966        18.21837        -0.73693
C         42.88216        20.34918        -0.25925
C         41.63312        21.07040        -0.18378
C         42.88180        23.15627         0.24628
C         41.67495        22.50849        -0.06064
C         42.96512        24.56910         0.38319
C         41.76802        25.34354         0.03884
C         42.95097        27.34532         1.15105
C         41.78071        26.82152         0.44886
C         42.85340        28.67381         1.87751
C         41.62156        29.49263         1.54267
C         42.89612        31.58119         1.65764
C         41.65457        30.87221         1.55973
C         42.90852        33.04410         1.54474
C         41.63576        33.82497         1.37673
C         42.77312        35.85844         2.53740
C         41.56153        35.21981         1.92759
C         42.75061        37.32862         2.80054
C         41.48614        38.07750         2.59265
C         42.77400        40.22925         2.62715
C         41.48880        39.47928         2.71276
C         42.64328        41.51412         1.87525
C         41.43046        42.31689         2.16896
C         42.57393        44.41183         1.22394
C         41.47324        43.78785         2.01113
C         42.57811        45.88095         1.06142
C         41.33817        46.52534         0.94069
C         42.47511        48.52159        -0.06165
C         41.29153        47.82254         0.33384
C         42.40572        49.86356        -0.55184
C         41.12845        50.56716        -0.58698
C         42.23112        52.62923        -1.41263
C         41.06040        51.93657        -0.98057
C         42.16895        53.88989        -1.99964
C         40.84536        54.50547        -2.21276
C         41.90627        56.30892        -3.84221
C         40.70039        55.74173        -3.05836
C         41.81035        57.79033        -4.07786
C         40.62535        58.49625        -3.96011
C         45.31668        16.06977        -0.91198
C         44.07312        16.76736        -0.82362
C         45.34867        18.86515        -0.51170
C         44.11368        18.16478        -0.69335
C         45.31940        20.26006        -0.24322
C         44.10545        20.97396        -0.03478
C         45.36634        23.14461         0.56953
C         44.09090        22.33996         0.62185
C         45.37967        24.47184         0.95964
C         44.13128        25.21796         0.85598
C         45.31650        27.20591         1.95382
C         44.11461        26.60355         1.23210
C         45.33651        28.71212         1.74779
C         44.16385        29.42384         1.72957
C         45.32622        31.56290         2.09943
C         44.13842        30.88251         1.76556
C         45.26135        32.94967         2.55737
C         44.12488        33.77417         2.08467
C         45.30839        35.86092         2.61070
C         44.07320        35.17262         2.51854
C         45.32356        37.29132         2.48666
C         44.09561        38.04648         2.78779
C         45.24322        40.09060         1.79227
C         44.09874        39.52340         2.55509
C         45.18817        41.46429         1.38455
C         43.86720        42.14983         1.31609
C         45.08239        44.35231         0.85190
C         43.80259        43.60846         0.95133
C         45.03218        45.74538         0.36834
C         43.87934        46.61179         0.83713
C         44.90967        48.53256        -0.38603
C         43.74324        47.88774         0.04311
C         44.85591        49.88979        -0.79487
C         43.60664        50.54544        -0.85936
C         44.81454        52.72384        -1.59171
C         43.55014        52.00568        -1.12183
C         44.68814        53.99398        -2.31381
C         43.38124        54.66658        -2.34441
C         44.45135        56.28793        -3.99967
C         43.25834        55.92055        -3.22144
C         46.52025        16.72512        -0.81042
C         47.83307        18.78014        -0.31794
C         46.59229        18.12789        -0.56448
C         47.82864        20.18265        -0.07074
C         46.59590        20.98137        -0.16758
C         47.82890        22.96409         0.92728
C         46.62739        22.45795         0.24708
C         47.84037        24.32348         1.51948
C         46.62200        25.15681         1.35099
C         47.89374        27.24329         1.86052
C         46.64263        26.50974         1.66184
C         47.89624        28.67036         1.93236
C         46.63778        29.39926         1.67946
C         47.87681        31.54875         2.40849
C         46.63015        30.91584         1.93662
C         47.84803        32.96349         2.81945
C         46.55953        33.72023         2.83210
C         47.76949        35.84287         2.25166
C         46.55310        35.15493         2.57631
C         47.69360        37.22815         1.84649
C         46.47562        37.94152         1.99076
C         47.50624        39.89511         0.82861
C         46.39637        39.33451         1.56737
C         47.47979        41.31342         0.51364
C         46.31548        42.08351         0.86992
C         47.45576        44.20729         0.04309
C         46.34772        43.55855         0.74160
C         47.36537        45.52537        -0.35058
C         46.16718        46.33243        -0.11421
C         47.33149        48.35102        -1.15670
C         46.24826        47.85625        -0.13625
C         47.43418        49.87477        -1.17045
C         46.11783        50.63401        -1.07143
C         47.17161        52.52669        -2.34095
C         46.05758        51.95434        -1.71880
C         47.08596        53.86378        -2.86187
C         45.81234        54.53986        -2.93722
C         45.65377        55.69710        -3.79739
C         50.27988        18.73792         0.02640
C         49.09897        18.08612        -0.15983
C         50.31603        20.22016         0.00460
C         48.99429        20.83366         0.32627
C         50.64833        23.17321         1.11157
C         48.86588        22.05835         1.04096
C         50.47196        24.54016         1.24460
C         49.20464        25.10835         1.74953
C         50.37224        27.31567         1.87591
C         49.15060        26.58242         1.79927
C         50.33083        28.69848         2.14662
C         49.09715        29.40791         2.11738
C         50.33448        31.62856         2.37469
C         49.08523        30.86491         2.31662
C         50.35992        32.99930         2.35378
C         49.13238        33.77154         2.63136
C         50.26961        35.98322         1.93055
C         49.01395        35.19180         2.25868
C         50.00762        37.13263         0.98960
C         48.81471        37.82332         1.15279
C         49.72152        39.66936        -0.28997
C         48.64515        39.13031         0.55657
C         49.65477        41.14174        -0.65356
C         48.56176        41.93461        -0.09716
C         49.46935        43.85179        -1.36447
C         48.73224        43.43457        -0.12080
C         49.27422        45.20756        -1.79248
C         48.43274        46.10265        -1.16211
C         49.89737        48.30503        -1.52830
C         48.66565        47.59339        -0.89822
C         49.83714        49.80645        -1.94501
C         48.53489        50.50643        -1.95120
C         49.54883        52.40559        -3.21699
C         48.41955        51.77345        -2.47538
C         49.46485        53.85211        -3.44343
C         48.28255        54.51747        -3.29853
C         52.94307        20.50166        -0.11741
C         51.58149        21.06918        -0.09230
C         52.79072        23.45874        -0.11573
C         51.54046        22.56716         0.15523
C         52.82563        24.74985         0.58425
C         51.65783        25.33866         1.07319
C         52.88212        27.25113         2.03736
C         51.67759        26.65553         1.69454
C         52.88814        28.64170         2.54723
C         51.57598        29.38906         2.55490
C         52.90531        31.58202         2.35174
C         51.61042        30.89966         2.59147
C         52.99608        33.11908         2.33798
C         51.61408        33.85397         2.48658
C         52.45457        35.51376         0.57099
C         51.39950        35.03801         1.51852
C         52.32040        36.84773        -0.11584
C         50.96429        37.54340        -0.11685
C         52.20309        39.76089        -0.71542
C         51.06088        39.05197        -0.31522
C         52.14298        41.18273        -1.13462
C         50.88591        41.81789        -1.13287
C         52.45590        44.08675        -2.30188
C         50.55025        43.07399        -1.75393
C         52.39486        45.53884        -2.26379
C         51.20393        46.25842        -2.37126
C         52.31094        48.38049        -2.07911
C         51.11619        47.62377        -1.99475
C         52.26208        49.78894        -2.37533
C         51.01906        50.39729        -2.57735
C         52.19666        52.42291        -3.41354
C         50.92394        51.69543        -3.25338
C         54.06131        21.30382        -0.28140
C         55.26297        23.50820        -0.49186
C         54.03851        22.71412        -0.35940
C         55.33590        24.81862         0.28663
C         54.12527        25.25217         1.04957
C         55.51577        27.20424         2.04539
C         54.16937        26.51918         1.87847
C         55.52235        28.69913         2.39427
C         54.19386        29.43544         2.56076
C         55.32418        31.68634         1.95486
C         54.09033        30.90203         2.28804
C         55.18628        32.96478         1.21206
C         53.93282        33.62963         1.23844
C         54.94006        35.56745         0.10581
C         53.79348        34.88022         0.62309
C         54.86783        36.95358        -0.26321
C         53.55687        37.62096        -0.46404
C         54.67842        39.80522        -0.91453
C         53.49576        39.09227        -0.69609
C         54.61802        41.21981        -1.22419
C         53.40128        41.89840        -1.41473
C         54.72114        44.13607        -1.34508
C         53.46563        43.34840        -1.73493
C         54.78731        45.58430        -1.79787
C         53.58348        46.28109        -1.99385
C         54.78240        48.41575        -2.20086
C         53.55891        47.69898        -2.10368
C         54.73280        49.85223        -2.40173
C         53.50105        50.49995        -2.59883
C         53.38640        51.87292        -3.05125
C         57.72173        23.33276        -0.44275
C         56.54374        22.86444        -0.86950
C         57.87508        24.40553         0.61209
C         56.64621        25.31357         0.76061
C         58.06735        26.82134         1.99111
C         56.72501        26.43997         1.54479
C         57.98997        29.04947         2.35151
C         56.73138        29.52316         2.12620
C         57.74015        31.57861         1.04657
C         56.63614        30.97148         1.82524
C         57.55721        32.82246         0.46208
C         56.29626        33.53776         0.55913
C         57.34940        35.57001        -0.43314
C         56.19198        34.87908         0.05771
C         57.25968        36.94709        -0.68490
C         56.02873        37.66371        -0.58684
C         57.16636        39.81482        -0.91609
C         55.97747        39.11034        -0.85214
C         57.17475        41.28008        -1.03610
C         55.91247        41.91552        -1.52867
C         57.24206        44.16121        -1.77472
C         55.96380        43.39117        -1.76099
C         57.25450        45.52703        -1.88906
C         56.00475        46.28970        -1.91927
C         57.25165        48.42852        -2.58826
C         55.99794        47.69313        -2.16534
C         57.17510        49.90608        -2.28753
C         55.99606        50.56541        -2.32430
C         60.41477        24.35072         0.43349
C         59.17152        25.21356         0.42634
C         60.53993        26.75498         1.93955
C         59.23313        26.30444         1.48360
C         60.45129        29.11410         1.96283
C         59.17937        29.71356         1.85179
C         60.17536        31.48899         0.48619
C         59.03171        30.91278         1.09138
C         60.01981        32.71725        -0.32625
C         58.64980        33.42357        -0.33107
C         59.76849        35.50800        -1.05548
C         58.61023        34.86845        -0.62494
C         59.74432        36.95434        -1.37808
C         58.45561        37.67859        -1.13994
C         59.78950        39.86492        -0.84815
C         58.47195        39.12845        -0.78316
C         59.78089        41.31550        -1.10297
C         58.49164        42.03419        -1.13064
C         59.82047        44.06148        -2.05369
C         58.49272        43.36506        -1.82177
C         59.80607        45.55303        -2.40888
C         58.54296        46.27165        -1.91112
C         59.81651        48.37270        -2.54511
C         58.54322        47.76458        -2.14740
C         61.56861        24.75960         1.00594
C         61.66655        26.01123         1.72219
C         61.57871        29.70904         1.38344
C         61.43481        30.88844         0.65543
C         61.18761        33.55261        -0.61061
C         61.04199        34.83581        -1.02706
C         60.99671        37.75557        -1.38342
C         61.00447        39.08478        -1.20197
C         60.97529        42.04149        -1.23892
C         61.01396        43.39419        -1.54058
C         61.03819        46.33739        -2.04966
C         61.01626        47.70141        -2.28348
O         35.17715        40.89535         4.23251
O         44.33337        52.79086        -0.17908
O         33.30314        30.74301         2.25633
O         26.89619        30.70501         0.83481
O         33.60543        42.45087         1.29010
O         60.64878        27.93230         2.70360
O         49.22596        40.10463        -1.60648
O         39.10870        47.56094        -0.81880
O         45.94317        44.19116         2.02993
O         26.09627        34.48204         1.89266
O         43.69405        40.28831         3.75089
O         59.19973        39.43963         0.45003
O         33.04696        37.42195         3.52102
O         55.08990        24.82251        -1.14982
O         52.81429        36.82260        -1.49527
O         41.98293        26.43026        -0.93027
O         42.85359        43.84824        -0.12716
O         51.32708        43.46178        -2.84986
O         29.02845        27.36046        -5.60260
O         46.73067        22.07780        -1.16531
O         51.36403        34.59640         0.13875
O         36.17635        37.22756         3.57531
O         36.37499        25.38327        -2.26869
O         29.08659        50.23162         0.84804
O         28.25439        33.20921         2.17098
O         23.97872        41.71715         2.36415
O         25.91856        42.87710         3.60627
O         25.50964        40.23867        -0.57521
O         24.35504        30.96141        -0.81289
O         35.51979        45.59066         4.06142
O         39.44526        56.82435        -1.20950
O         50.05805        45.64654        -2.86789
O         40.20123        27.53446         2.17719
O         53.77326        33.44774         3.46716
O         40.30465        54.47645        -3.65443
O         59.14604        43.27186        -3.12523
O         55.90641        42.46785        -2.89532
O         31.96717        30.91567        -1.04396
O         23.57678        41.77322        -1.17568
O         51.70661        23.32829        -1.07557
O         37.71207        49.71678        -1.37119
O         55.69420        27.68102         3.41007
O         39.67223        31.27461         2.88539
O         27.54449        38.15395        -0.37002
O         37.48279        48.89897         2.27155
O         48.63217        33.37484         3.96808
O         24.08954        33.10343         0.87441
O         50.01490        51.68069        -4.41268
O         56.30461        31.75222         3.04255
O         24.26682        47.72675         0.97034
O         43.93187        33.58191         0.63407
O         38.50819        42.08960         4.20057
O         43.45069        37.65933         4.03691
O         45.67508        33.25112         3.91121
O         40.99886        33.52614         0.11445
O         38.93704        27.67882        -1.21187
O         51.44981        30.11624         3.82089
O         40.73936        36.66001         0.17408
O         38.34411        35.67897         0.11980
O         27.06915        48.54120         4.35337
O         31.16462        35.58223        -0.18128
O         33.23780        44.18374         4.38378
O         48.48999        24.44158         2.81935
O         58.86682        37.34399        -2.50809
O         50.23081        49.36946        -0.60157
O         49.92080        22.31683         1.93457
O         42.95397        41.36236         0.45090
O         29.00107        38.26278         2.97440
O         41.21655        44.54676         3.23125
O         54.23273        25.18973         2.51081
O         33.55219        48.96086         3.41038
O         58.17018        27.80579         2.97126
O         28.63794        23.24231        -3.90479
O         46.56836        48.20169         1.20515
O         50.81807        20.72239        -1.31049
O         25.59769        28.43307        -2.85678
O         28.87281        43.39914         1.29191
O         42.05348        18.78255        -1.97248
O         47.09728        50.56844         0.03817
O         33.33702        33.30237         2.88573
O         27.49961        40.68322         3.53653
O         41.72341        35.16612         3.36572
O         59.09012        32.58288        -1.44904
O         28.27619        46.36319         4.34108
O         58.63853        47.19346        -0.78854
O         53.58913        28.93449         3.78690
O         46.76580        30.34588         0.57533
O         30.68221        24.89201        -0.63475
O         57.73452        41.99597         0.12534
O         43.37852        56.05108        -1.78898
O         40.56170        18.68735         1.34658
H         39.78869        19.06731         1.81463
O         23.32698        35.50396         1.44473
H         23.71573        34.74915         1.95073
O         48.98005        47.59892         0.50177
H         48.16443        47.85521         1.03413
O         41.91624        55.70006        -5.16388
H         41.29979        54.92893        -5.13114
O         35.69468        54.08947        -2.97077
H         35.68757        53.10843        -2.96953
O         59.72712        45.63621        -3.86388
H         59.32654        44.79003        -4.17932
O         33.31041        23.82014        -3.19470
H         34.18048        24.26444        -3.29184
O         49.60289        43.76135         1.02384
H         49.03269        44.06785         1.76179
O         39.98500        53.14488         0.78628
H         40.78341        53.71234         0.84907
O         22.15941        32.42710        -0.68575
H         22.75212        31.79977        -0.20502
O         58.01576        23.71568         1.88234
H         57.15496        23.31604         2.12515
O         46.88942        48.01203        -2.49059
H         46.91155        47.03451        -2.58780
O         23.47124        38.28312         1.71207
H         23.26969        37.33330         1.91438
O         57.30844        48.32348        -4.05226
H         56.49694        48.73852        -4.41405
O         50.26734        37.08775        -1.31674
H         50.95897        36.94446        -2.00544
O         30.44896        38.03850        -0.34811
H         31.05183        37.43188        -0.83670
O         22.20945        45.82308         3.32991
H         21.47045        45.17860         3.32423
O         54.80142        44.16984         0.11298
H         54.07401        44.73275         0.45190
O         31.47254        22.49248        -0.35426
H         30.62556        22.00695        -0.28089
O         43.92754        22.02429         2.06134
H         43.91294        22.87370         2.55328
O         59.08133        25.84686        -0.88094
H         59.95495        26.23768        -1.09052
O         50.66646        36.65935         3.16359
H         50.94412        35.94097         3.79894
O         51.55743        34.34011         3.84030
H         52.45349        34.08901         4.23182
O         33.14883        40.09536         0.59843
H         33.59317        40.93451         0.31994
O         26.90408        31.21857        -5.85351
H         27.39855        30.81793        -6.60146
O         44.29901        47.07224         2.16524
H         45.18581        47.54365         2.02645
O         42.70892        28.35704         3.31054
H         41.80562        27.97448         3.42114
O         37.62000        38.12724         0.30857
H         38.31584        37.70436        -0.25362
O         45.10814        26.97917         3.37942
H         44.26894        27.44447         3.63202
O         35.23688        36.58019         0.15409
H         36.08758        37.05625        -0.03331
H         26.52138        27.45142        -8.19713
H         24.82559        29.19076        -8.74781
H         24.26122        30.97147        -7.15832
H         23.94238        32.39020        -5.85123
H         22.85333        33.75027        -4.11765
H         21.23740        34.01063        -2.53274
H         21.33429        36.37377        -2.11145
H         21.15850        38.13016        -1.59811
H         21.16793        40.51095        -1.29370
H         20.89035        42.40260        -0.42677
H         20.69267        44.58842         0.63790
H         20.63342        46.55277         0.91318
H         22.53286        50.01091         2.64156
H         20.63440        48.93424         1.47353
H         26.72146        25.53291        -7.20107
H         24.38592        50.91160         2.98265
H         27.60578        23.50620        -6.12081
H         26.44660        52.05713         2.92376
H         31.42765        19.72981        -3.67192
H         29.48233        20.97579        -4.61280
H         30.11976        54.06056         1.19329
H         28.18006        53.08357         2.26590
H         32.21470        18.60648        -2.09877
H         31.47821        54.67114        -0.11815
H         34.19731        17.33070        -1.46141
H         33.42430        55.63646        -1.21866
H         37.81217        15.08622        -0.87472
H         35.75065        16.35153        -1.11638
H         37.06272        57.82610        -1.93536
H         35.00598        56.59980        -1.59762
H         39.41581        14.10462        -0.30956
H         38.58610        58.57961        -3.23974
H         43.68549        14.04153        -0.77241
H         41.54750        12.86364        -0.46382
H         42.68802        58.29113        -4.50965
H         40.59355        59.53651        -4.31671
H         45.32402        14.98461        -1.07854
H         44.34088        57.03198        -4.80132
H         47.44870        16.14629        -0.90521
H         46.50881        56.01772        -4.40766
H         51.21910        18.16983         0.09491
H         49.10592        16.98734        -0.19557
H         50.34294        54.38044        -3.83915
H         48.24821        55.58961        -3.53482
H         53.06057        19.40951        -0.15386
H         52.17730        53.43122        -3.85063
H         55.03892        20.80702        -0.37776
H         54.30571        52.45932        -3.19400
H         58.64039        22.84050        -0.79300
H         56.50471        22.03517        -1.59237
H         58.11375        50.46896        -2.17736
H         55.97978        51.65928        -2.20969
H         60.39777        23.40499        -0.12607
H         59.82897        49.39485        -2.94909
H         62.46912        24.13256         0.93292
H         62.63576        26.33941         2.11699
H         62.56311        29.23546         1.48892
H         62.32470        31.33013         0.18815
H         62.19810        33.14460        -0.47342
H         61.94625        35.40631        -1.27425
H         61.94567        37.25583        -1.62334
H         61.95793        39.62470        -1.29152
H         61.92806        41.54072        -1.01517
H         61.96357        43.93665        -1.45592
H         61.99598        45.83400        -1.86190
H         61.96280        48.26289        -2.30560
