         244
 CSIRO Nanostructure Databank - Neutral Graphene Oxide Data Set
C          1.21755         2.05329        -0.29752
C          1.18559         3.44637        -0.30608
C          2.43020         1.36347        -0.25461
C          2.38380         4.20214        -0.26031
C          1.18500         6.40098        -0.26866
C          1.19768         7.77818        -0.27710
C          2.38856         5.64999        -0.29089
C          2.41846         8.51385        -0.34635
C          1.20670        10.70751        -0.09806
C          1.17758        12.06884        -0.07633
C          2.42061         9.96024        -0.28972
C          2.39745        12.87841        -0.42197
C          1.23556        15.07066         0.16683
C          1.22393        16.42716         0.37130
C          2.43863        14.29560         0.13508
C          2.42868        17.15253         0.74896
C          2.52000        18.62086         0.61984
C          3.65150         2.06821        -0.18958
C          3.62192         3.50572        -0.17094
C          4.89784         1.37297        -0.22554
C          4.85331         4.23601        -0.13195
C          3.62565         6.36028        -0.36941
C          3.62804         7.78463        -0.43397
C          4.85846         5.61136        -0.29490
C          4.92769         8.52008        -0.68298
C          3.65453        10.69799        -0.25627
C          3.64960        12.08405        -0.16616
C          4.93423         9.97838        -0.29160
C          4.94414        12.77876         0.16798
C          3.67259        14.94190         0.24029
C          3.75341        16.35639         0.63048
C          4.91354        14.27135        -0.01599
C          4.97645        17.10016         0.30035
C          3.71762        19.25303         0.56771
C          4.97995        18.54851         0.42202
C          6.12540         2.04022        -0.10409
C          6.09588         3.49077         0.31585
C          7.35427         1.37731        -0.19061
C          7.39038         4.22107         0.06985
C          6.16654         6.33026        -0.51165
C          6.09796         7.77768        -0.02483
C          7.38792         5.62011         0.01025
C          7.42618         8.48973        -0.16614
C          6.12457        10.64003        -0.30605
C          6.11681        12.12890        -0.54909
C          7.43707         9.93914        -0.58533
C          7.40644        12.84032        -0.23266
C          6.10225        14.97501        -0.18939
C          6.09884        16.41531        -0.13169
C          7.37648        14.25112        -0.26026
C          7.28810        17.19990        -0.63840
C          6.17545        19.24052         0.33782
C          7.40536        18.58210        -0.00093
C          8.60827         2.06251        -0.11493
C          8.61454         3.52264         0.01927
C          9.80492         1.38311        -0.22551
C          9.82633         4.24409         0.05533
C          8.58908         6.34433         0.16718
C          8.59084         7.81217         0.09008
C          9.80198         5.63432         0.25938
C          9.84790         8.53941         0.24617
C          8.64629        10.68608        -0.05303
C          8.61396        12.14274        -0.01975
C          9.78661         9.99114         0.30175
C          9.78789        12.89498         0.26656
C          8.59272        14.96390        -0.22471
C          8.59591        16.40798        -0.57141
C          9.79010        14.28921         0.11042
C          9.87304        17.15213        -0.46028
C          8.60462        19.25771         0.03972
C          9.86607        18.63130        -0.28843
C         11.09705         2.07398        -0.35169
C         11.13401         3.60132        -0.35919
C         12.36376         1.31684        -0.11291
C         12.35082         4.20958         0.33138
C         11.02776         6.36246         0.73031
C         11.04692         7.84318         0.42204
C         12.33472         5.64728         0.48803
C         12.30144         8.52343         0.53283
C         10.97605        10.71041         0.83699
C         10.97021        12.24052         0.94992
C         12.28629         9.97356         0.81804
C         12.30373        12.89325         0.60026
C         11.01554        15.07273         0.55920
C         11.11238        16.44787        -0.05668
C         12.30448        14.28934         0.40934
C         12.29221        17.10570        -0.23600
C         11.05977        19.27731        -0.39742
C         12.27387        18.49394        -0.85870
C         13.60873         2.04899         0.25092
C         13.52116         3.48550         0.49049
C         14.77458         1.36172         0.39376
C         14.76731         4.17916         0.87989
C         13.50788         6.38071         0.58099
C         13.51658         7.82594         0.58765
C         14.77917         5.68639         0.81306
C         14.78583         8.53150         0.66686
C         13.56421        10.71262         0.74826
C         13.52554        12.16523         0.63185
C         14.74806         9.98611         0.73789
C         14.74907        12.88934         0.50166
C         13.52042        15.00409         0.25939
C         13.55330        16.43842         0.01321
C         14.73574        14.29260         0.35078
C         14.75118        17.14686        -0.10654
C         13.56836        19.23325        -0.68376
C         14.75826        18.57606        -0.41589
C         16.04885         2.00801         0.89439
C         16.04984         3.49238         0.63254
C         17.30342         1.30679         0.45842
C         17.17715         4.20638         0.30840
C         16.03942         6.39233         0.53362
C         16.00079         7.82460         0.55752
C         17.21444         5.66115         0.29594
C         17.35401         8.47674         0.77299
C         16.02400        10.72429         0.67940
C         16.00162        12.17537         0.38503
C         17.32112         9.99216         0.57396
C         17.19311        12.82487         0.18565
C         15.99403        15.04909         0.40631
C         16.01793        16.47814         0.03530
C         17.28864        14.27070         0.32856
C         17.22115        17.13555        -0.12429
C         16.01060        19.26100        -0.44138
C         17.24250        18.58359        -0.28891
C         18.41533         1.98386         0.03860
C         18.35492         3.44952        -0.18251
C         19.66582         1.32032        -0.23308
C         19.63957         4.19448        -0.45361
C         18.47779         6.35231         0.04593
C         18.51604         7.76795         0.10398
C         19.67482         5.65129        -0.23585
C         19.71534         8.44898        -0.18685
C         18.39152        10.64130        -0.25969
C         18.40410        12.16182        -0.41516
C         19.64431         9.89119        -0.55129
C         19.70977        12.80628        -0.00610
C         18.52819        14.94049        -0.06150
C         18.51755        16.39585        -0.39370
C         19.75016        14.21455        -0.03022
C         19.73662        17.07413         0.19740
C         18.47196        19.26371        -0.28039
C         19.71134        18.61049         0.14118
C         20.83983         2.01322        -0.44772
C         20.89695         3.43328        -0.46332
C         22.10556         4.15814        -0.49334
C         20.92346         6.32430        -0.34952
C         20.92872         7.75678        -0.38087
C         22.11997         5.54557        -0.48140
C         22.12967         8.53515        -0.63303
C         20.89292        10.72424        -0.86342
C         20.94206        11.94991         0.13488
C         22.13447         9.87585        -0.81960
C         22.19946        12.76639         0.03470
C         21.01794        14.92801         0.00056
C         21.03438        16.35481         0.10582
C         22.21142        14.12925         0.00088
C         22.20097        17.12283         0.19306
C         21.01095        19.26804         0.04807
C         22.17314        18.54246         0.15053
O         18.56904        10.00499        -1.56462
O         16.98001        10.61014         1.84792
O         18.70897         3.81928        -1.55745
O         19.52366        17.80606         1.40219
O          9.41415        16.67247        -1.79625
O          3.14120        16.64718         1.92457
O         11.28898         4.01138        -1.75328
O         14.74543         4.96165         2.12039
O         11.50816        10.15552         2.09199
O         16.76067        14.77198         1.63119
O         12.11118        18.30467        -2.30829
H         11.27498        17.80525        -2.44360
O         10.76027        12.55205         2.36803
H         11.17731        11.81156         2.87418
O         20.77572        11.28886        -2.19008
H         20.64228        10.54717        -2.81775
O         17.63620         8.22911         2.18716
H         17.27143         9.00245         2.68307
O          5.79085         7.74703         1.39090
H          6.50474         7.25622         1.85095
O         11.90964         1.50903        -1.47755
H         11.75794         3.26978        -2.20606
O          5.17509        12.55996         1.59558
H          4.46598        13.01941         2.09308
O         18.71987        16.50106        -1.85394
H         18.10842        15.87172        -2.29237
O         10.82905        15.29375         1.99325
H         10.78293        14.39645         2.41376
O          5.11873         8.57667        -2.13441
H          5.31191         7.65715        -2.44648
O         18.28039        12.47965        -1.83917
H         19.07134        12.06996        -2.27614
O         16.00682         1.87092         2.36234
H         15.40701         2.56745         2.70832
O          2.33691        13.07693        -1.89134
H          2.61894        12.23746        -2.31424
O         10.88932         6.32085         2.20525
H         11.62424         6.84902         2.58614
O          7.54648         9.93779        -2.05920
H          6.75299         9.42490        -2.37486
O          5.97955         3.46055         1.78534
H          5.18885         2.92120         2.00109
O          5.90883        12.27702        -1.98088
H          6.57593        11.69792        -2.42119
O          6.38670         6.33454        -1.96828
H          6.52649         5.40538        -2.25055
O          6.99182        17.45660        -2.04011
H          7.85715        17.43035        -2.51459
O         20.90541        11.31092         1.44988
H         20.93123        12.01671         2.13015
H          0.27427         1.49091        -0.34185
H          0.21274         3.95213        -0.36332
H          2.44170         0.26446        -0.27590
H          0.21693         5.88481        -0.21930
H          0.23699         8.30758        -0.23721
H          0.26394        10.16707         0.06557
H          0.21434        12.58040         0.06201
H          0.29188        14.58003        -0.11078
H          0.30854        17.00165         0.16549
H          1.58504        19.20129         0.60368
H          4.88859         0.28443        -0.38824
H          3.74996        20.35265         0.53153
H          7.36409         0.29256        -0.37866
H          6.19328        20.32334         0.53769
H          9.80520         0.28909        -0.34035
H          8.61768        20.31616         0.34444
H         12.30434         0.25779         0.22524
H         11.12580        20.36940        -0.27830
H         14.77437         0.26951         0.25376
H         13.58677        20.30549        -0.93281
H         17.35073         0.21697         0.60678
H         16.01378        20.35054        -0.59637
H         19.68802         0.22192        -0.18141
H         18.49827        20.33914        -0.51307
H         21.78029         1.45377        -0.56300
H         23.05682         3.60777        -0.54001
H         23.08970         6.05771        -0.53857
H         23.09107         8.00365        -0.68376
H         23.08804        10.37767        -1.04190
H         23.15701        12.22637         0.06970
H         23.18547        14.64022        -0.01733
H         23.18289        16.62989         0.19867
H         21.04578        20.34858        -0.15327
H         23.13601        19.07289         0.11928
