         244
 CSIRO Nanostructure Databank - Neutral Graphene Oxide Data Set
C          1.31198         2.06540         0.79201
C          1.28999         3.50528         0.95758
C          2.45937         1.37777         0.58685
C          2.39294         4.27167         0.69240
C          1.20232         6.48303         0.71459
C          1.21926         7.87143         0.68265
C          2.40039         5.73982         0.68615
C          2.42939         8.58012         0.51689
C          1.28465        10.79875         0.25945
C          1.27889        12.17445         0.19910
C          2.46689        10.04097         0.48900
C          2.40244        12.95980         0.66620
C          1.29736        15.16902         0.30224
C          1.32504        16.55107         0.17360
C          2.48475        14.42094         0.42360
C          2.55587        17.23701         0.14006
C          2.60459        18.66442         0.00027
C          3.77244         2.10723         0.66815
C          3.62487         3.56242         0.23825
C          4.95458         1.41142         0.03787
C          4.91043         4.31619         0.14330
C          3.63077         6.44709         0.59723
C          3.63912         7.84325         0.45763
C          4.89088         5.65380         0.89163
C          4.88053         8.56062        -0.01147
C          3.71717        10.71751         0.54769
C          3.76307        12.16490         0.80475
C          4.92778        10.03093         0.32691
C          5.00579        12.90287         0.59526
C          3.74072        15.07458         0.39376
C          3.77153        16.49489         0.23241
C          4.99491        14.34474         0.49124
C          5.01576        17.18702         0.12637
C          3.79923        19.32443        -0.08243
C          5.03985        18.60329        -0.04461
C          6.14086         2.06428        -0.05878
C          6.16877         3.51853         0.21069
C          7.36852         1.53845        -0.72920
C          7.32367         4.23036         0.33618
C          6.23556         6.45567         0.83827
C          6.17243         7.86988         0.29666
C          7.27176         5.69877        -0.00486
C          7.35983         8.54353         0.06098
C          6.16033        10.72105         0.24324
C          6.20143        12.16216         0.37295
C          7.37740         9.99871         0.01227
C          7.45113        12.83080         0.30626
C          6.20978        15.04011         0.37415
C          6.24179        16.45757         0.14970
C          7.49186        14.29715         0.67610
C          7.45710        17.16068        -0.08864
C          6.27327        19.26804        -0.20349
C          7.48074        18.55764        -0.25625
C          8.58671         1.22621        -0.08809
C          8.61173         3.66816         0.79448
C          9.81823         1.46149        -0.75918
C          9.83497         4.22064         0.14998
C          8.61517         6.38702         0.03036
C          8.62066         7.82168        -0.07282
C          9.78782         5.64930        -0.05980
C          9.80816         8.52352        -0.33892
C          8.60731        10.68879        -0.09343
C          8.65069        12.12100         0.05815
C          9.83001         9.97003        -0.33766
C          9.93147        12.77152         0.00992
C          8.71753        14.94229         0.06507
C          8.69598        16.39080        -0.29077
C         10.03859        14.24971         0.34947
C          9.96730        17.10785        -0.49755
C          8.76107        19.33033        -0.53269
C         10.01261        18.49445        -0.68614
C         11.05852         2.02682        -0.13857
C         11.00718         3.47866         0.07880
C         12.26192         1.37674        -0.12454
C         12.28370         4.22199         0.09095
C         11.00239         6.34334        -0.50627
C         11.04541         7.80778        -0.51086
C         12.30120         5.58598        -0.50144
C         12.26658         8.45519        -0.65031
C         11.04325        10.65522        -0.51011
C         11.09382        12.05690        -0.27279
C         12.25840         9.90676        -1.03965
C         12.44044        12.74997        -0.12649
C         11.18681        14.92847        -0.36122
C         11.14737        16.32843        -0.65972
C         12.36647        14.20895        -0.49542
C         12.30732        16.96120        -1.18835
C         11.23774        19.12962        -0.98357
C         12.42655        18.40333        -1.24518
C         13.55307         1.97958         0.44308
C         13.58688         3.50203         0.26693
C         14.82139         1.30860        -0.04281
C         14.76233         4.20787        -0.26822
C         13.54878         6.34915        -0.42640
C         13.52139         7.75268        -0.55060
C         14.76867         5.62028        -0.38590
C         14.74703         8.48529        -0.40933
C         13.56889        10.61059        -0.76997
C         13.53100        12.09671        -1.01680
C         14.70715         9.93630        -0.42535
C         14.85846        12.81699        -0.83969
C         13.52401        14.82001        -1.04716
C         13.36871        16.10887        -1.54505
C         14.84981        14.17152        -0.97678
C         15.28281        17.21174        -1.58377
C         13.68250        19.10981        -1.28132
C         15.00892        18.60165        -1.24947
C         15.96757         1.98555        -0.41413
C         15.90917         3.44140        -0.67215
C         17.24328         1.35069        -0.56532
C         17.27214         4.25153        -0.75654
C         16.00481         6.36067        -0.42309
C         15.97368         7.78946        -0.29249
C         17.23574         5.67657        -0.44475
C         17.21101         8.47942        -0.01148
C         15.91477        10.71392         0.05658
C         16.12266        12.00238        -0.73941
C         17.21174         9.92579         0.12140
C         17.29661        12.77672        -0.17909
C         16.05087        15.01452        -0.52793
C         16.26443        16.44836        -1.02099
C         17.35248        14.23264        -0.44078
C         17.52438        17.21091        -0.66739
C         16.06503        19.30211        -0.61238
C         17.26607        18.64764        -0.25185
C         18.46046         2.06713        -0.58299
C         18.49268         3.50026        -0.52793
C         19.71986         1.38180        -0.53020
C         19.69211         4.21460        -0.28720
C         18.45049         6.35500        -0.14470
C         18.40250         7.76161         0.10734
C         19.68662         5.64291        -0.11860
C         19.62024         8.36935         0.75679
C         18.37047        10.62144         0.37992
C         18.40535        12.08326         0.30097
C         19.61124         9.90506         0.78439
C         19.62101        12.79034         0.61703
C         18.53390        14.99618         0.07228
C         18.48667        16.47150         0.23580
C         19.48475        14.24023         0.98756
C         19.48451        17.14948         0.86952
C         18.29914        19.30526         0.41504
C         19.46941        18.61625         0.86185
C         20.90269         2.07365        -0.39614
C         20.92582         3.49283        -0.26172
C         22.14189         4.22251        -0.14633
C         20.93340         6.35448         0.03731
C         20.92357         7.75312         0.27733
C         22.14703         5.59514        -0.02994
C         22.11333         8.54466         0.30009
C         20.90670        10.66308         0.79987
C         20.87465        12.15436         0.69304
C         22.13842         9.89080         0.55161
C         22.03155        12.92871         0.86977
C         20.77050        15.00053         1.18204
C         20.59372        16.44241         1.64738
C         21.96652        14.33585         1.08315
C         21.86053        17.26016         1.67116
C         20.61180        19.30958         1.24083
C         21.82341        18.61254         1.55310
O          2.96210        12.57531         1.95397
O         12.95309         4.20089         1.40878
O         11.55756         5.72411        -1.74788
O          8.69930         3.02571         1.83947
O          8.52428        15.30083        -1.32118
O         18.46653        14.60151        -1.34528
O         20.17702        10.34825         2.07682
O         14.33786        16.59562        -2.40954
O         16.50763         3.85186        -1.93082
O          4.10791         4.06087        -1.04626
O         13.13845        12.32934        -2.39391
H         12.58019        11.56762        -2.69411
O          6.81079         5.81235        -1.37829
H          7.43118         5.32475        -1.95926
O          8.56085         0.71761         1.16320
H          9.45920         0.73672         1.54833
O          6.78066         6.59101         2.16244
H          6.15912         6.13085         2.77978
O         18.76422        14.22442         2.28711
H         19.11689        13.47233         2.81033
O         20.16306        16.37439         3.04406
H         19.40674        15.73449         3.06987
O         13.50597         1.70168         1.87340
H         13.10439         2.49871         2.29508
O         15.74774        15.25980         0.89561
H         14.79405        15.47584         0.97620
O          4.09038         2.27607         2.10588
H          4.24956         1.38647         2.48764
O         15.62340        11.12729         1.41706
H         15.41743        10.32971         1.94680
O          7.66340        14.35697         2.14030
H          6.89371        13.90272         2.54645
O          4.72322         5.23573         2.29019
H          4.53531         4.26679         2.33834
O         12.05789         9.88540        -2.51511
H         12.71801         9.26280        -2.88983
O          4.76370         8.51152        -1.48994
H          5.63964         8.74425        -1.86612
O         18.24918        17.31218        -1.94772
H         18.47793        16.38526        -2.20088
O         19.50784         7.91981         2.14981
H         19.95346         8.61642         2.69083
O         10.34836        14.33910         1.77446
H          9.49903        14.21247         2.26653
O         12.81621        12.63167         1.26368
H         12.14866        13.13830         1.78259
O         16.48119        11.59946        -2.09302
H         16.50199        12.40165        -2.65624
O          8.99198        20.27990         0.51963
H          8.14645        20.73083         0.71959
H          0.34900         1.53431         0.81937
H          0.33982         3.97177         1.25391
H          2.45033         0.28642         0.44690
H          0.23685         5.96223         0.78140
H          0.26789         8.41564         0.75845
H          0.36879        10.26516        -0.03192
H          0.42472        12.68736        -0.26563
H          0.32741        14.65453         0.34496
H          0.38549        17.11701         0.10138
H          1.65689        19.22013        -0.04914
H          4.86273         0.35521        -0.25574
H          3.82609        20.41763        -0.19925
H          7.47106         1.89433        -1.77099
H          6.27526        20.36020        -0.34644
H          9.70735         1.77464        -1.81483
H          8.60361        19.90410        -1.49957
H         12.29480         0.31265        -0.40487
H         11.26608        20.22914        -1.00951
H         14.88644         0.22364         0.13509
H         13.59421        20.18781        -1.05825
H         17.28712         0.25264        -0.50392
H         15.89709        20.33260        -0.26133
H         19.72851         0.28411        -0.59643
H         18.23676        20.39297         0.57748
H         21.85719         1.52717        -0.37462
H         23.09419         3.67199        -0.15455
H         23.11257         6.11024         0.06647
H         23.07089         8.05575         0.06682
H         23.09886        10.42386         0.51414
H         23.01700        12.44453         0.89522
H         22.91570        14.87306         1.22515
H         22.80311        16.76530         1.94617
H         20.61684        20.40876         1.21249
H         22.74398        19.20037         1.68536
