         410
 CSIRO Nanostructure Databank - Neutral Graphene Oxide Data Set
C         29.12247        27.29669         2.76616
C         29.05647        28.71175         2.72831
C         28.01777        29.42087         3.39937
C         28.93323        31.55664         2.64544
C         27.95184        30.79174         3.34654
C         28.87178        32.99544         2.58637
C         27.79383        33.72182         3.16345
C         28.74638        35.85339         2.44575
C         27.72852        35.09486         3.08735
C         28.67902        37.29291         2.36045
C         27.56763        38.02219         2.86514
C         28.54692        40.15127         2.17132
C         27.49822        39.39422         2.76555
C         28.47465        41.59014         2.05877
C         27.32119        42.32639         2.45654
C         28.37025        44.43627         1.81533
C         27.26321        43.69610         2.32791
C         28.33748        45.86090         1.73745
C         31.08970        27.31183         1.32085
C         30.11480        26.61983         2.08509
C         31.06507        28.73450         1.29596
C         30.04632        29.43973         2.00684
C         31.02670        31.61049         1.33034
C         29.99431        30.87151         1.99218
C         30.99505        33.02909         1.31849
C         29.90388        33.72763         1.93066
C         30.91114        35.89379         1.25129
C         29.84866        35.15773         1.87786
C         30.86528        37.31293         1.20604
C         29.74237        38.01888         1.75180
C         30.77363        40.18074         1.09614
C         29.68084        39.44844         1.67810
C         30.71964        41.59577         1.05753
C         29.58060        42.30532         1.50821
C         30.67243        44.49996         0.95795
C         29.53374        43.74516         1.40247
C         30.64449        45.92216         0.94203
C         29.43459        46.57767         1.31740
C         33.19155        24.51905        -0.20798
C         32.18020        25.20833         0.51838
C         32.90614        27.36419        -0.40950
C         32.06301        26.58752         0.51950
C         33.07371        28.81805        -0.17244
C         32.08500        29.48630         0.60256
C         33.15512        31.64246         0.07549
C         32.09148        30.90810         0.67683
C         33.14124        33.06949         0.08638
C         32.05114        33.76608         0.68635
C         33.08534        35.92187         0.06530
C         32.01585        35.19036         0.67635
C         33.03804        37.33997         0.03790
C         31.94197        38.04241         0.59285
C         33.07256        40.21494         0.14888
C         31.90082        39.47520         0.56661
C         33.10442        41.62723         0.28444
C         31.78843        42.34753         0.31473
C         33.05960        44.52355         0.42019
C         31.87668        43.81745         0.62388
C         33.05628        45.94574         0.35911
C         31.83074        46.64757         0.54423
C         32.96966        48.74345        -0.02772
C         31.82271        48.05385         0.34009
C         35.22871        23.08583        -1.82377
C         35.24765        24.47894        -1.62585
C         34.11853        25.16806        -0.99834
C         35.10114        27.39355        -1.80523
C         33.95216        26.61233        -1.23425
C         35.21539        28.85422        -1.50987
C         34.15943        29.53200        -0.70798
C         35.35811        31.67277        -1.04256
C         34.23084        30.94181        -0.54904
C         35.39601        33.07234        -0.96855
C         34.23063        33.80070        -0.49238
C         35.32710        35.96163        -1.05079
C         34.18243        35.20505        -0.51264
C         35.41434        37.40036        -0.79917
C         34.08838        38.10537        -0.72994
C         35.40922        40.23898        -0.58540
C         34.22378        39.53371        -0.29827
C         35.43467        41.63974        -0.36636
C         34.29385        42.33494         0.08121
C         35.57902        44.55648         0.01474
C         34.36839        43.78174         0.54194
C         35.45995        45.98705        -0.28459
C         34.25731        46.66233        -0.03871
C         35.43380        48.81963        -0.49114
C         34.20297        48.08825        -0.21975
C         35.48954        50.22777        -0.35310
C         37.42760        23.16615        -2.83387
C         36.28903        22.44523        -2.46764
C         37.51213        24.57190        -2.63083
C         36.36506        25.21196        -2.10076
C         37.71806        27.40001        -2.20265
C         36.36265        26.67516        -2.18481
C         37.74859        28.82284        -1.81470
C         36.55758        29.48956        -1.58162
C         37.87161        31.66221        -1.64734
C         36.51235        30.95102        -1.59653
C         37.86615        33.07925        -1.26444
C         36.64863        33.75449        -1.16056
C         37.87606        35.97070        -1.04055
C         36.64009        35.22243        -1.26205
C         37.88077        37.35614        -0.98175
C         36.61472        38.07338        -0.92398
C         37.81893        40.19377        -1.21064
C         36.63521        39.52694        -0.93063
C         37.76990        41.64716        -1.42667
C         36.56596        42.39002        -0.92330
C         37.84888        44.55447        -1.25098
C         36.73459        43.82657        -0.59609
C         37.83808        45.93142        -1.27269
C         36.51222        46.65936        -1.14465
C         37.84691        48.81567        -1.01609
C         36.62362        48.13078        -0.83595
C         37.87838        50.23728        -0.85556
C         36.67490        50.91189        -0.53951
C         39.79972        20.48334        -0.58068
C         39.02117        20.90931        -1.62161
C         40.57778        22.73299        -2.22731
C         39.41354        22.01263        -2.45638
C         40.72734        24.13160        -2.60081
C         38.74554        25.32248        -2.79355
C         40.26377        27.26136        -2.06629
C         38.97523        26.60970        -2.29017
C         40.28749        28.64376        -1.77612
C         39.05582        29.46562        -1.71150
C         40.31323        31.57398        -1.13176
C         39.08617        30.84852        -1.52592
C         40.33081        33.07454        -1.12256
C         39.11699        33.75997        -1.10371
C         40.41746        35.96282        -0.77731
C         39.09303        35.19640        -0.79132
C         40.35769        37.41473        -0.98829
C         39.14331        38.08619        -0.98503
C         40.26678        40.22174        -1.53189
C         39.10741        39.52095        -1.22873
C         40.17991        41.60736        -2.03610
C         39.01265        42.40880        -1.63369
C         40.22304        44.52565        -2.00617
C         39.02773        43.79313        -1.60890
C         40.28456        45.96680        -1.77224
C         39.06774        46.66241        -1.48804
C         40.32091        48.74327        -1.22162
C         39.07639        48.07225        -1.27793
C         40.34171        50.21130        -1.21602
C         39.11907        50.97044        -0.99358
C         40.42268        53.00592        -0.53689
C         39.21170        52.36041        -0.83940
C         42.03807        20.70925         0.69534
C         41.19246        20.92015        -0.49469
C         42.83175        22.88251        -1.09830
C         41.59243        22.09621        -1.38174
C         42.89360        24.31427        -1.59968
C         41.66112        24.99226        -2.08491
C         42.86123        27.23174        -1.78890
C         41.62342        26.51416        -2.36981
C         42.78273        28.68928        -1.73932
C         41.56623        29.34696        -1.63816
C         42.84439        31.57519        -1.30250
C         41.58979        30.78940        -1.22995
C         42.83266        33.03749        -1.03040
C         41.57232        33.80377        -1.08249
C         42.86667        35.95840        -1.30956
C         41.64288        35.20636        -1.06954
C         42.87458        37.38353        -1.38211
C         41.64143        38.13052        -1.07476
C         42.83188        40.25579        -1.94925
C         41.60646        39.62834        -1.39210
C         42.77383        41.65602        -2.42889
C         41.40486        42.32518        -2.49835
C         43.10546        44.78862        -2.17697
C         41.25490        43.79922        -2.57608
C         42.79665        45.93338        -1.44901
C         41.53453        46.63349        -1.53449
C         42.75319        48.64951        -0.66456
C         41.53422        48.01764        -1.17543
C         42.79494        50.05188        -0.38935
C         41.70033        50.91679        -0.83345
C         42.73141        52.82033         0.35857
C         41.60803        52.28915        -0.34352
C         43.19388        21.39276         0.88821
C         44.77873        23.25335         0.42001
C         43.68477        22.47843         0.04697
C         45.13356        24.49404        -0.32423
C         44.09775        25.12228        -1.25290
C         45.41708        27.24055        -1.32853
C         44.02657        26.59060        -1.41144
C         45.35432        28.74781        -1.44791
C         44.05204        29.46198        -1.70140
C         45.30148        31.63100        -1.41142
C         44.03487        30.92400        -1.45755
C         45.35233        33.07100        -1.51171
C         44.11576        33.81852        -1.23495
C         45.28661        35.97146        -1.76846
C         44.09004        35.27133        -1.48927
C         45.29571        37.39121        -1.78410
C         44.06690        38.11070        -1.63086
C         45.31890        40.28440        -1.91139
C         44.04601        39.56281        -1.83929
C         45.33405        41.67705        -1.95626
C         44.13060        42.45807        -2.28930
C         45.20423        44.38149        -1.03362
C         44.13940        43.87759        -1.86451
C         45.07815        45.65908        -0.42448
C         43.74023        46.35195        -0.35900
C         44.95290        48.41368         0.42275
C         43.83751        47.85295        -0.25766
C         44.94334        49.79385         0.78052
C         43.84410        50.62201         0.36475
C         43.80279        52.02691         0.68033
C         46.56978        23.69647         2.09053
C         45.53298        22.95834         1.62811
C         47.07951        24.87608         1.36687
C         46.26430        25.34596         0.18840
C         47.29154        27.57747         0.37110
C         46.29941        26.77559        -0.16846
C         47.39049        28.97054        -0.02586
C         46.45502        29.53049        -0.85608
C         47.70354        31.66914        -0.92756
C         46.47318        30.94898        -1.11028
C         47.80961        33.00339        -1.54986
C         46.53831        33.74107        -1.70494
C         47.86967        35.95275        -1.95974
C         46.53783        35.19591        -1.99258
C         47.77821        37.42150        -1.82158
C         46.56119        38.11645        -1.82881
C         47.80814        40.27327        -1.70833
C         46.56872        39.55634        -1.80146
C         47.92248        41.77349        -1.96564
C         46.57907        42.55271        -1.99381
C         47.54952        44.26635        -0.34785
C         46.44767        43.69335        -0.99939
C         47.41815        45.53462         0.29633
C         46.18193        46.24346         0.22529
C         47.18322        48.15133         1.44050
C         46.09571        47.59754         0.73613
C         47.10022        49.50517         1.87836
C         46.02840        50.30066         1.54874
C         48.92066        25.37804         2.99157
C         48.03792        25.82552         1.97952
C         49.35166        27.88579         1.78997
C         48.21967        27.09079         1.39551
C         49.54509        29.19832         1.26497
C         48.36288        29.89496         0.66021
C         49.91537        31.85026         0.13064
C         48.71167        31.11724        -0.16166
C         50.08482        33.17899        -0.35960
C         49.08900        33.78789        -1.27015
C         50.21297        35.96802        -1.09064
C         49.08452        35.26191        -1.43960
C         50.34198        37.38582        -1.50728
C         49.03336        38.15943        -1.84482
C         50.36239        40.35491        -1.70784
C         49.03031        39.60656        -1.70125
C         50.22212        41.69599        -1.00280
C         48.98945        42.36764        -1.04957
C         49.94841        44.19042         0.29475
C         48.83765        43.59882        -0.37201
C         49.79398        45.43924         0.99699
C         48.53532        46.11595         0.98159
C         49.48360        47.87932         2.37532
C         48.39573        47.37706         1.62557
C         50.04601        26.10576         3.31967
C         51.53895        28.07396         2.94489
C         50.32068        27.34637         2.68865
C         51.73707        29.34767         2.34920
C         50.71193        29.92792         1.52572
C         52.07567        31.99229         1.29195
C         50.89538        31.26609         0.98861
C         52.21569        33.34271         0.84665
C         51.18153        33.95476         0.07239
C         52.43985        36.06677        -0.02878
C         51.31012        35.33883        -0.35819
C         52.68082        37.39688        -0.63353
C         51.49234        38.18839        -1.04571
C         52.73387        40.29899        -0.79785
C         51.52316        39.55338        -1.13249
C         52.64608        41.63651        -0.46669
C         51.34994        42.29772        -0.39874
C         52.36754        44.20143         0.85148
C         51.22170        43.56097         0.24005
C         52.20626        45.40201         1.59313
C         50.89516        46.01628         1.68228
C         50.69433        47.21425         2.40847
C         53.74557        28.20941         3.98430
C         52.57247        27.52907         3.76589
C         53.95389        29.49995         3.41936
C         52.93856        30.07740         2.60885
C         54.32093        32.09995         2.33880
C         53.11718        31.39406         2.08059
C         54.48000        33.44143         1.82839
C         53.40381        34.06412         1.17324
C         54.84436        36.20377         0.97999
C         53.48008        35.49266         0.83511
C         55.07571        37.50268         0.31811
C         54.00145        38.09601        -0.49839
C         55.31564        40.32173        -0.44549
C         54.04069        39.57919        -0.78026
C         55.23336        41.80219        -0.17376
C         53.84809        42.44665        -0.15006
C         54.78207        44.26814         1.28273
C         53.66550        43.65600         0.67686
C         54.60097        45.45028         2.03787
C         53.34544        46.00751         2.17943
C         55.15025        30.22659         3.66431
C         55.32887        31.48442         3.13473
C         55.76621        34.09435         1.85323
C         55.96585        35.34816         1.36554
C         56.25080        38.23438         0.56316
C         56.40379        39.55549         0.19252
C         56.29059        42.44953         0.62911
C         56.08634        43.64221         1.23383
O         32.67549        26.99357        -1.81513
O         36.76491        44.15597         0.84387
O         53.78706        36.33416         2.01021
O         40.92560        30.99167         0.08408
O         48.85782        33.10608        -2.55533
O         49.96810        37.63941        -2.86776
O         44.98311        29.13930        -2.80704
O         35.80410        35.63223        -2.40140
O         40.52462        41.66519        -3.48962
O         39.76160        35.53601         0.46690
O         53.69700        37.28992        -1.71009
O         54.76901        42.61057        -1.28667
O         34.70826        28.36692        -2.80760
O         43.37273        23.19140        -2.42055
O         43.64531        33.45224         0.12364
O         48.43949        41.79741        -3.29720
O         41.26016        50.75073        -2.20745
O         38.49904        22.47375        -3.41778
O         41.82685        39.13153        -0.01650
O         39.75073        24.63394        -3.46320
O         41.91436        20.72613        -1.76230
O         36.92038        27.18208        -3.42489
O         54.99426        39.94398        -1.82570
O         37.06545        31.46434        -2.84951
O         43.57199        42.02837        -3.56804
O         47.27301        35.49504        -3.21900
O         42.26472        44.46924        -3.26241
O         45.27863        24.44228        -1.76886
O         47.52125        24.60880        -0.01541
O         36.70720        42.10357        -2.35578
O         46.48744        43.24027        -3.27031
H         47.21390        42.82994        -3.82238
O         41.77546        26.66690        -3.80229
H         41.08719        26.11187        -4.23318
O         33.59048        38.15223        -2.11942
H         34.32286        38.47175        -2.68893
O         46.11418        26.78399        -2.51426
H         45.73611        27.28003        -3.27512
O         34.54058        43.68140         1.99166
H         35.51226        43.63715         2.15621
O         47.61336        30.42944         1.82344
H         48.23732        30.97770         2.34572
O         35.94463        46.59846        -2.51435
H         36.55964        47.07916        -3.10911
O         43.11829        45.90724         0.91333
H         43.69747        46.22036         1.64101
O         50.72354        40.58237        -3.08428
H         49.95185        41.09883        -3.47424
O         31.34021        42.32860        -1.10076
H         31.26327        41.38812        -1.37191
H         28.36486        26.73890         3.33499
H         27.25829        28.85171         3.95451
H         27.13084        31.30074         3.86831
H         26.98113        33.18774         3.67278
H         26.86816        35.60291         3.54218
H         26.73142        37.49091         3.33827
H         26.61227        39.90439         3.16615
H         26.44932        41.79866         2.86588
H         26.35898        44.23926         2.63876
H         27.42166        46.38706         2.04377
H         30.12719        25.52238         2.12052
H         29.37739        47.67462         1.29793
H         33.26905        23.43272        -0.05891
H         31.52431        24.60030         1.15601
H         32.89635        49.82888        -0.18009
H         30.88805        48.61838         0.45900
H         34.35038        22.49944        -1.52398
H         34.58913        50.79368        -0.08020
H         36.23905        21.36763        -2.67001
H         36.67659        52.00263        -0.41612
H         39.40307        19.78164         0.16738
H         38.00558        20.50811        -1.74457
H         40.39860        54.07465        -0.27856
H         38.29647        52.96744        -0.80937
H         41.72716        19.95107         1.42938
H         42.71812        53.87806         0.65892
H         43.77754        21.12968         1.77997
H         44.64242        52.47821         1.22461
H         47.04789        23.40627         3.03700
H         45.24601        22.07852         2.21825
H         47.92480        49.94804         2.45179
H         46.03015        51.34815         1.87700
H         48.75560        24.40137         3.46656
H         49.38633        48.81990         2.93289
H         50.74257        25.69292         4.06063
H         51.51411        47.65250         2.99199
H         54.53547        27.76568         4.60713
H         52.44432        26.53813         4.22063
H         55.47309        45.92584         2.50875
H         53.24453        46.93684         2.75454
H         55.93122        29.77481         4.29256
H         56.25680        32.02749         3.35736
H         56.64411        33.51002         2.16084
H         56.99084        35.71955         1.22721
H         57.07151        37.75264         1.11425
H         57.34419        40.06328         0.44361
H         57.27864        41.97401         0.69847
H         56.90737        44.12705         1.78240
