         640
 CSIRO Nanostructure Databank - Neutral Graphene Oxide Data Set
C         23.18193        27.82334        -2.50540
C         23.14267        29.17797        -2.08471
C         23.04296        31.99893        -1.03361
C         23.06083        33.25839        -0.51182
C         23.03810        36.10209         0.26891
C         23.05128        37.43240         0.63601
C         22.97395        40.19903         2.00343
C         22.96322        41.55796         2.10375
C         22.89383        44.52728         1.73020
C         22.90148        45.90570         1.57634
C         25.55562        24.95340        -2.43080
C         24.38506        25.65304        -2.56278
C         25.63400        27.77035        -2.26059
C         24.35543        27.08162        -2.45633
C         25.58540        29.24884        -1.79207
C         24.26155        29.83666        -1.60862
C         25.45353        31.72236        -0.26344
C         24.16624        31.09135        -0.82285
C         25.43791        33.14110         0.14402
C         24.21709        33.82757         0.11420
C         25.32098        35.79099         1.35489
C         24.10829        35.19096         0.68685
C         25.33412        37.27527         1.61055
C         24.11625        38.03706         1.32367
C         25.42781        40.19368         1.68653
C         24.13100        39.53991         1.29620
C         25.38321        41.63382         1.71045
C         24.12125        42.33780         1.75493
C         25.31052        44.48628         1.41261
C         24.09496        43.77299         1.64717
C         25.32140        45.87995         1.30495
C         24.10935        46.60573         1.36687
C         25.25843        48.69376         0.78138
C         24.14540        48.05258         1.19912
C         28.13356        23.48633        -2.44866
C         28.05216        24.85256        -2.07939
C         26.80970        25.59471        -2.12461
C         28.02722        27.67828        -1.55285
C         26.84114        26.99047        -1.96392
C         28.00019        29.07473        -1.18133
C         26.78473        29.80884        -1.12934
C         27.95139        31.73421        -0.11912
C         26.75346        31.08583        -0.54672
C         27.89894        33.07416         0.46956
C         26.66679        33.74287         0.57982
C         27.90283        35.82944         1.23122
C         26.64178        35.01288         1.42437
C         27.86610        37.32800         1.05539
C         26.65283        38.01552         1.65204
C         27.89227        40.17744         1.66294
C         26.65267        39.50439         1.62528
C         27.85735        41.63983         2.05262
C         26.58811        42.32490         1.64180
C         27.88404        44.43882         1.11680
C         26.57098        43.73093         1.26842
C         27.87580        45.91273         1.07709
C         26.60337        46.68608         1.31790
C         27.80937        48.69693         0.41705
C         26.50359        47.91121         0.40812
C         27.82078        50.05503         0.06834
C         30.56586        23.55753        -2.41447
C         29.35566        22.85909        -2.62679
C         30.50283        24.86707        -1.92814
C         29.25861        25.53838        -1.76395
C         30.41300        27.61167        -0.98934
C         29.22189        26.93650        -1.39378
C         30.42077        28.97613        -0.75534
C         29.19616        29.71719        -0.74201
C         30.37432        31.58172         0.50873
C         29.16882        31.04587        -0.23339
C         30.37991        33.08378         0.70926
C         29.12403        33.74122         0.86626
C         30.34477        35.87689         1.72366
C         29.10171        35.15375         1.18120
C         30.37347        37.35407         1.35258
C         29.16296        38.05544         1.34762
C         30.37636        40.17649         1.62075
C         29.14167        39.47722         1.53059
C         30.38138        41.59436         2.15692
C         29.13974        42.38810         1.77166
C         30.35144        44.53037         1.38663
C         29.14762        43.73379         1.47141
C         30.32350        45.88218         1.00342
C         29.05507        46.59078         0.88445
C         30.27069        48.71365         0.39032
C         29.04191        48.02530         0.59798
C         30.25722        50.09238         0.03721
C         29.01585        50.74605        -0.09447
C         33.05716        20.76322        -2.83179
C         31.96283        21.51738        -3.11213
C         33.05134        23.43474        -1.97138
C         31.91727        22.99697        -2.86283
C         32.89670        24.69917        -1.25996
C         31.78340        25.63192        -1.70015
C         32.89460        27.54378        -0.52102
C         31.61620        26.75738        -0.66188
C         32.91482        28.90143        -0.42568
C         31.71367        29.74297        -0.75600
C         32.86879        31.68723         0.27425
C         31.68925        31.03451         0.02414
C         32.86322        33.09203         0.67809
C         31.60174        33.75954         0.86069
C         32.86828        35.94479         1.03478
C         31.70335        35.11015         1.54353
C         32.84866        37.35531         1.11743
C         31.61016        38.06619         1.33993
C         32.85400        40.21939         1.34176
C         31.60415        39.49145         1.45036
C         32.88685        41.63300         1.46674
C         31.67660        42.35783         1.90001
C         32.87063        44.52567         1.24694
C         31.63340        43.84933         1.64746
C         32.80940        45.99105         1.17164
C         31.53331        46.64920         0.87152
C         32.76433        48.70585         0.19454
C         31.53108        48.01257         0.52473
C         32.71115        50.06791        -0.25667
C         31.50597        50.77592        -0.26525
C         32.70872        52.86227        -0.77090
C         31.52643        52.18147        -0.56050
C         35.50784        19.15156        -2.37080
C         35.44665        20.54037        -2.06506
C         34.25075        21.30639        -2.22823
C         35.39497        23.27853        -1.20894
C         34.20212        22.66432        -1.76732
C         35.38486        24.61578        -0.75434
C         34.09762        25.29252        -0.53457
C         35.37982        27.46078        -0.23505
C         34.07570        26.74058        -0.02790
C         35.37784        28.87297        -0.15310
C         34.14866        29.60581        -0.14554
C         35.37583        31.66919         0.30633
C         34.14536        30.99005         0.09549
C         35.36972        33.04209         0.93592
C         34.07350        33.79732         0.78087
C         35.32845        35.93264         0.68364
C         34.09798        35.23839         0.83330
C         35.29108        37.41000         0.38249
C         34.05096        38.11122         0.90269
C         35.27285        40.26183         0.57632
C         34.04669        39.49680         1.01471
C         35.29845        41.70305         1.01200
C         34.08093        42.38129         1.23899
C         35.30901        44.55169         0.96087
C         34.07005        43.83628         1.21129
C         35.32436        45.93690         0.70316
C         34.10242        46.73316         0.86163
C         35.25335        48.70286        -0.12399
C         34.01526        48.05832         0.25495
C         35.24104        50.04883        -0.53732
C         33.93081        50.69049        -0.89924
C         35.18436        52.87732        -1.02127
C         33.95657        52.19475        -0.83614
C         35.21712        54.29313        -1.21297
C         37.87618        19.04123        -1.77381
C         36.67114        18.42779        -2.20464
C         37.86632        20.44331        -1.51842
C         36.64733        21.18021        -1.61351
C         37.84561        23.24071        -0.94778
C         36.63060        22.56577        -1.25562
C         37.83659        24.64074        -0.68660
C         36.60089        25.32582        -0.56812
C         37.82663        27.47938        -0.36415
C         36.58930        26.75635        -0.35083
C         37.82157        28.88284        -0.26910
C         36.60770        29.59197        -0.13822
C         37.85504        31.71575         0.23458
C         36.59207        31.00633         0.10882
C         37.83589        33.14109         0.46420
C         36.61740        33.82933         0.62490
C         37.82693        35.97659         0.59572
C         36.57972        35.24769         0.62922
C         37.82980        37.40312         0.67254
C         36.59104        38.13227         0.68024
C         37.77909        40.27094         0.92564
C         36.57423        39.52334         0.79324
C         37.75318        41.66299         1.07781
C         36.52462        42.39553         1.05853
C         37.74400        44.55547         0.80678
C         36.53873        43.83932         0.98201
C         37.75694        45.92127         0.45983
C         36.52101        46.61771         0.36348
C         37.72975        48.67171        -0.27898
C         36.49874        48.00727         0.00372
C         37.70611        50.06658        -0.61421
C         36.45701        50.75440        -0.73204
C         37.65852        52.86921        -1.19809
C         36.43595        52.16508        -1.00994
C         37.64753        54.28122        -1.44045
C         36.39327        54.96174        -1.42837
C         40.21943        16.12555        -1.33463
C         39.09169        16.85420        -1.62446
C         40.29758        18.95301        -1.25262
C         39.09261        18.28246        -1.56499
C         40.31516        20.39237        -1.10794
C         39.08437        21.11950        -1.17683
C         40.30923        23.21234        -0.70898
C         39.08480        22.52136        -0.95017
C         40.31317        24.62815        -0.53291
C         39.07655        25.35442        -0.53645
C         40.31783        27.47169        -0.28019
C         39.07696        26.75869        -0.41692
C         40.33579        28.88291        -0.18943
C         39.08551        29.65376        -0.51647
C         40.31025        31.73836         0.16651
C         39.06144        31.05264         0.03570
C         40.30918        33.15003         0.35011
C         39.07460        33.85831         0.44194
C         40.32002        35.98615         0.59990
C         39.06783        35.27864         0.54686
C         40.30705        37.41592         0.72565
C         39.07528        38.09223         0.74006
C         40.30712        40.21431         1.26619
C         39.09015        39.59021         0.61812
C         40.29603        41.70011         1.43789
C         38.99070        42.41572         1.36039
C         40.29096        44.56852         0.83279
C         39.01140        43.90075         1.14919
C         40.24006        45.89623         0.34998
C         39.00817        46.59606         0.20577
C         40.21041        48.67372        -0.43901
C         38.97477        47.96903        -0.19082
C         40.17453        50.06783        -0.76477
C         38.92737        50.76647        -0.84546
C         40.12757        52.87032        -1.36269
C         38.90763        52.16556        -1.13943
C         40.10794        54.26954        -1.64918
C         38.86853        54.98257        -1.67994
C         40.06387        57.05101        -2.20608
C         38.89060        56.38578        -1.96032
C         42.60719        16.03548        -0.67123
C         41.44088        16.77590        -0.99701
C         42.72295        18.85406        -0.69674
C         41.49486        18.20038        -0.99306
C         42.83139        20.33508        -0.97148
C         41.52113        21.07380        -0.86105
C         42.76943        23.17639        -0.44202
C         41.54079        22.48380        -0.67381
C         42.77692        24.59375        -0.31725
C         41.54036        25.32196        -0.35478
C         42.77505        27.44847        -0.07077
C         41.54726        26.74356        -0.22071
C         42.78045        28.86547         0.03945
C         41.54633        29.58239        -0.01105
C         42.77429        31.72878         0.19556
C         41.54224        31.02328         0.10877
C         42.76859        33.14205         0.27608
C         41.55275        33.85779         0.37392
C         42.80299        35.99190         0.66252
C         41.54740        35.28663         0.51394
C         42.77860        37.40007         0.90054
C         41.57611        38.12147         0.87282
C         42.79629        40.28827         1.24559
C         41.60052        39.53797         1.08817
C         42.75561        41.72921         1.29631
C         41.54927        42.46063         1.26752
C         42.77385        44.68654         1.10619
C         41.50833        43.86345         1.00272
C         42.77031        45.96064         0.31363
C         41.48549        46.49966        -0.24782
C         42.67122        48.70648        -0.47916
C         41.45297        48.00333        -0.33678
C         42.61927        50.08081        -0.82377
C         41.39570        50.75695        -1.00619
C         42.57192        52.86352        -1.61534
C         41.38057        52.17509        -1.33345
C         42.57436        54.26085        -1.88014
C         41.32975        54.96337        -1.89666
C         42.52917        57.02556        -2.44971
C         41.31424        56.36009        -2.18469
C         43.77797        16.68118        -0.34088
C         45.09862        18.77947         0.03147
C         43.86438        18.10364        -0.35642
C         45.03338        20.22335         0.30753
C         43.93303        21.02197        -0.21237
C         45.21356        23.10459         0.09458
C         43.97646        22.41214        -0.17023
C         45.29523        24.55421        -0.30728
C         43.99876        25.30602        -0.15632
C         45.24946        27.42025         0.10336
C         44.01185        26.71152        -0.05036
C         45.26143        28.85209         0.19269
C         44.02097        29.58416         0.15845
C         45.26679        31.70855         0.35093
C         44.02576        30.99544         0.21389
C         45.29231        33.12349         0.39457
C         44.04772        33.89914         0.04579
C         45.28452        35.98209         0.75095
C         44.02979        35.30410         0.58036
C         45.30027        37.37600         1.00305
C         44.02915        38.08029         1.39669
C         45.28305        40.23693         1.13293
C         44.05644        39.57862         1.19755
C         45.32788        41.71375         1.23916
C         44.02600        42.48824         1.33980
C         45.23648        44.55459         0.64451
C         44.04628        43.90162         0.93591
C         45.23251        45.95743         0.27201
C         43.96421        46.62900         0.08656
C         45.16229        48.69390        -0.51048
C         43.95137        48.02212        -0.33528
C         45.17637        50.14747        -0.75173
C         43.86835        50.85704        -0.91912
C         45.11354        52.88260        -1.73805
C         43.84146        52.07614        -1.80765
C         45.07818        54.26176        -2.00424
C         43.79716        54.96455        -2.11757
C         43.73850        56.34032        -2.41089
C         47.52376        18.81582         0.45368
C         46.30515        18.12765         0.21748
C         47.60991        20.19999         0.54306
C         46.36511        20.97565         0.62182
C         47.66293        23.10209         0.45126
C         46.39302        22.42204         0.36911
C         47.69040        24.52825         0.50624
C         46.47739        25.27591         0.28330
C         47.66679        27.41353         0.69908
C         46.45161        26.66469         0.32242
C         47.77124        28.80906         0.12999
C         46.48004        29.56709         0.31107
C         47.74225        31.68675         0.53386
C         46.49770        30.97296         0.42305
C         47.73662        33.08085         0.58277
C         46.51342        33.81955         0.52870
C         47.75189        35.96948         0.82648
C         46.52061        35.26457         0.65125
C         47.74982        37.37337         1.00209
C         46.52490        38.07954         1.05178
C         47.75702        40.22386         0.89341
C         46.52757        39.53054         1.06342
C         47.75791        41.66424         0.42753
C         46.50420        42.43764         0.75796
C         47.73608        44.52066         0.32059
C         46.48415        43.80397         0.58153
C         47.68912        45.93272         0.02242
C         46.44492        46.61835        -0.05736
C         47.61765        48.69346        -0.79908
C         46.42457        48.01131        -0.46130
C         47.60992        50.09408        -1.18575
C         46.40309        50.80233        -1.23925
C         47.57564        52.89860        -1.80975
C         46.35611        52.19506        -1.59511
C         47.51726        54.28906        -2.06642
C         46.31018        54.95631        -2.13154
C         50.09963        20.23834         0.53751
C         48.86587        20.92285         0.53787
C         50.12962        23.05239         0.61949
C         48.87798        22.35741         0.55665
C         50.14922        24.48397         0.71471
C         48.92214        25.19124         0.73946
C         50.22029        27.36439         0.84571
C         48.94404        26.64688         0.91293
C         50.21271        28.80778         0.80173
C         49.01241        29.53819         0.57123
C         50.22538        31.62753         0.86951
C         49.00715        30.94397         0.63130
C         50.20250        33.10665         1.17610
C         49.05326        33.80367         0.44701
C         50.22995        35.94834         0.83311
C         49.00832        35.27089         0.78928
C         50.28229        37.38654         0.95173
C         49.02157        38.10677         1.36678
C         50.22850        40.27181         0.78496
C         48.98980        39.56183         0.95684
C         50.24886        41.68147         0.66181
C         48.96800        42.42989         0.94836
C         50.23162        44.60387         0.50151
C         48.94026        43.84907         0.44178
C         50.12421        45.93273        -0.17912
C         48.91939        46.61626        -0.28247
C         50.06125        48.69145        -1.04733
C         48.88216        48.00872        -0.74237
C         50.08230        50.08099        -1.42292
C         48.84212        50.78476        -1.47267
C         50.05880        52.82267        -2.03396
C         48.83097        52.17838        -1.76685
C         51.30692        20.91706         0.56478
C         52.61431        23.04511         0.64299
C         51.35573        22.32943         0.61127
C         52.62600        24.47170         0.74103
C         51.39517        25.19082         0.79526
C         52.67606        27.31112         1.01763
C         51.42047        26.62696         0.89227
C         52.66597        28.76262         1.44602
C         51.42669        29.51118         1.00309
C         52.69606        31.64509         1.40786
C         51.42714        30.91356         1.01497
C         52.72888        33.08385         0.93515
C         51.50438        33.81165         0.84954
C         52.69142        35.94670         0.42231
C         51.45838        35.19621         0.66848
C         52.73156        37.40687         0.64902
C         51.47271        38.09658         0.83600
C         52.67971        40.24850         0.64707
C         51.47456        39.55455         0.79001
C         52.69136        41.64830         0.38008
C         51.45516        42.37505         0.41846
C         52.64743        44.40175        -0.24081
C         51.46873        43.78951         0.16331
C         52.62741        45.78855        -0.75887
C         51.34333        46.54421        -0.72094
C         52.64353        48.69046        -1.14627
C         51.35881        48.02572        -0.81173
C         52.59211        49.97395        -1.94502
C         51.30041        50.74919        -1.73111
C         51.25530        52.11550        -2.04356
C         55.05090        23.05267         0.57968
C         53.84814        22.36584         0.56560
C         55.09517        24.46068         0.67618
C         53.87227        25.17755         0.76099
C         55.14522        27.32578         0.93095
C         53.87686        26.61294         0.90847
C         55.17081        28.73176         0.95706
C         53.93828        29.49673         1.09331
C         55.18672        31.56874         0.55882
C         53.94118        30.86026         1.03823
C         55.21544        33.04304         0.85282
C         53.96116        33.73240         0.81623
C         55.19303        35.94030         0.92994
C         53.98865        35.17687         0.53015
C         55.21363        37.39321         0.68010
C         53.94407        38.07635         0.67509
C         55.20258        40.21926         0.37472
C         53.97931        39.55329         0.95405
C         55.16372        41.58888         0.05304
C         53.91436        42.31758         0.07750
C         55.10827        44.37048        -0.62908
C         53.89706        43.69231        -0.27778
C         55.11161        45.78274        -0.92204
C         53.90311        46.51755        -0.93543
C         55.10586        48.59215        -1.45674
C         53.90267        47.89499        -1.22615
C         55.04774        50.04442        -1.58539
C         53.88904        50.72445        -1.74066
C         57.59548        24.49715         0.58048
C         56.36728        25.17223         0.70017
C         57.61610        27.29384         0.88882
C         56.36994        26.59241         0.83491
C         57.63752        28.70133         1.04108
C         56.42935        29.43177         0.98240
C         57.68652        31.56817         0.93885
C         56.45799        30.85615         0.92443
C         57.68751        33.00259         0.83362
C         56.43941        33.71058         0.86070
C         57.72658        35.91815         0.78812
C         56.48394        35.17728         1.05683
C         57.69417        37.33135         0.62157
C         56.43148        38.06416         0.62140
C         57.62621        40.17584         0.06096
C         56.43067        39.50333         0.36509
C         57.59893        41.54286        -0.33531
C         56.36334        42.26087        -0.33009
C         57.55866        44.31424        -1.00291
C         56.33956        43.64975        -0.66123
C         57.55429        45.71716        -1.27724
C         56.33256        46.45929        -1.22487
C         57.57967        48.49770        -1.80226
C         56.33753        47.86415        -1.48918
C         58.81094        25.18779         0.56821
C         60.08395        27.32211         0.61173
C         58.84447        26.57573         0.72126
C         60.13053        28.65263         0.83475
C         58.93537        29.39169         1.38752
C         60.11007        31.60817         1.12541
C         58.92655        30.87762         1.10154
C         60.11272        33.00154         0.96488
C         58.91884        33.72147         0.82352
C         60.12346        35.89748         0.46069
C         58.93069        35.18552         0.67978
C         60.10989        37.28646         0.34843
C         58.91627        38.01542         0.39763
C         60.02213        40.07731        -0.59500
C         58.96452        39.52689         0.32936
C         59.95918        41.35914        -1.02374
C         58.79470        42.18689        -0.78798
C         59.98189        44.27809        -1.43989
C         58.78364        43.57875        -1.08665
C         59.97589        45.62892        -1.68501
C         58.76714        46.38038        -1.60960
C         58.75124        47.78088        -1.86455
O         44.83495        42.20158         2.54274
O         52.14028        48.74318         0.22770
O         45.44359        20.56992         1.67242
O         31.85669        43.29674         3.02121
O         38.90387        43.33100         2.50906
O         26.07210        37.53245         2.87953
O         48.11020        27.18871         2.05474
O         53.45528        35.53643        -0.77908
O         30.10202        36.00031         3.11059
O         40.21960        40.78338         2.60326
O         24.56257        30.90394         0.57702
O         27.22453        43.88080        -0.08679
O         24.29258        35.15770         2.17246
O         55.72081        35.59834         2.25083
O         44.56684        50.96938         0.34780
O         51.77656        45.89393        -1.98521
O         33.56575        46.66955         2.23546
O         33.10395        24.49062         0.16686
O         31.35824        26.20670         0.61729
O         25.86577        28.88071        -3.18390
O         39.31160        39.86963        -0.81775
H         38.54450        39.50824        -1.31120
O         41.47411        46.03754        -1.66456
H         40.71605        46.47865        -2.10523
O         35.14869        40.33985        -0.89776
H         35.05779        39.40618        -1.21896
O         26.33020        47.42930        -0.94995
H         26.26154        48.20485        -1.54407
O         32.14453        34.71494         2.87812
H         31.46111        35.14365         3.48561
O         27.71682        41.62395         3.52839
H         28.59631        41.31470         3.88047
O         49.39184        33.71903        -0.97633
H         48.71276        34.21754        -1.47753
O         49.99560        33.22082         2.60539
H         50.78446        32.82431         3.04395
O         52.56142        49.54654        -3.34416
H         52.55140        50.34948        -3.90576
O         52.65327        31.70368         2.87568
H         52.68893        30.76700         3.19415
O         59.35375        39.95812         1.68438
H         59.36097        40.93893         1.68641
O         30.21917        31.02604         1.86675
H         30.85080        31.49101         2.45639
O         23.97414        39.87258        -0.14409
H         23.94908        40.85217        -0.21042
O         43.96343        37.90793         2.87246
H         43.20354        38.44041         3.19409
O         54.14076        39.66953         2.41726
H         54.14289        40.62470         2.63944
O         32.19674        26.22545        -2.95488
H         32.13158        25.52158        -3.64732
O         39.13732        29.84073        -1.99131
H         39.14062        28.94566        -2.39354
O         33.76192        50.38270        -2.35434
H         32.93458        50.82757        -2.63994
O         52.59898        28.76877         2.92357
H         51.79726        28.26491         3.18323
O         35.46097        32.79330         2.39245
H         34.56544        32.54930         2.71167
O         26.73309        34.50608         2.78772
H         25.81162        34.34329         3.09572
O         43.22493        20.42852        -2.39807
H         42.49854        20.03053        -2.92399
O         27.64053        37.50220        -0.40024
H         28.46471        37.24695        -0.86721
O         30.32583        41.39121         3.61303
H         30.77545        42.17493         4.01461
O         45.55947        24.52148        -1.76950
H         45.64359        25.45273        -2.06777
O         50.41909        44.89821         1.96496
H         49.73700        45.55995         2.21468
O         26.72363        47.21663         2.67437
H         26.72236        46.46544         3.30356
O         32.14901        23.65774        -4.17908
H         32.95354        23.25335        -4.56972
O         55.11948        31.49504        -0.92487
H         55.17320        30.54632        -1.17045
O         47.91778        28.59222        -1.32015
H         48.00560        29.47256        -1.74367
O         43.78151        51.53228        -3.17469
H         43.70719        52.28994        -3.79281
O         49.05741        38.10619         2.84226
H         48.25635        38.57787         3.15696
O         31.86805        30.17625        -2.16136
H         32.77757        30.53109        -2.25754
O         42.80525        45.11683         2.52630
H         42.95842        44.31561         3.07348
O         48.86284        42.51744         2.39688
H         49.54075        43.17069         2.69057
O         59.05637        29.28977         2.85715
H         59.00530        28.33743         3.08694
O         44.12391        34.06743        -1.43541
H         44.01658        33.17472        -1.82919
O         35.15227        37.49685        -1.10443
H         35.86958        36.95102        -1.49409
O         33.85525        26.66176         1.40756
H         32.90015        26.35880         1.48395
O         47.89538        41.62799        -1.02314
H         47.15612        41.09968        -1.38931
H         22.23215        27.31537        -2.72657
H         22.15564        29.65483        -1.99728
H         22.18677        31.67151        -1.63955
H         22.16602        33.88208        -0.63479
H         22.21851        35.73760        -0.36269
H         22.22226        38.07678         0.31015
H         22.11356        39.59831         2.32945
H         22.07078        42.06752         2.49577
H         21.93880        44.01353         1.90576
H         21.95627        46.46563         1.62566
H         25.52731        23.86002        -2.53120
H         23.44341        25.11932        -2.75800
H         25.22799        49.78289         0.62910
H         23.22149        48.61771         1.39710
H         27.21843        22.91749        -2.66128
H         26.87615        50.59408        -0.08957
H         29.37067        21.81509        -2.96865
H         28.96994        51.80809        -0.36717
H         33.03830        19.69765        -3.10190
H         31.11305        21.04858        -3.62883
H         32.66364        53.95600        -0.86259
H         30.59436        52.75948        -0.52661
H         34.60854        18.62713        -2.72023
H         34.28126        54.86665        -1.21323
H         36.65344        17.35399        -2.43367
H         36.35558        56.04686        -1.58838
H         40.18832        15.02663        -1.35413
H         38.16478        16.31905        -1.86911
H         40.05470        58.12841        -2.42542
H         37.95086        56.95244        -1.98911
H         42.56140        14.93694        -0.67048
H         42.51600        58.10038        -2.68024
H         44.65803        16.08528        -0.06432
H         44.66008        56.90199        -2.61237
H         48.43992        18.20944         0.46337
H         46.36757        17.03990         0.07418
H         48.44136        54.86491        -2.20733
H         46.31980        56.03868        -2.31350
H         50.11841        19.14065         0.52311
H         50.08394        53.89416        -2.27071
H         52.23391        20.32928         0.56651
H         52.17922        52.65155        -2.30287
H         55.98050        22.47250         0.51734
H         53.87526        21.27155         0.48501
H         55.98740        50.61142        -1.51187
H         53.91290        51.82241        -1.80318
H         57.62015        23.40591         0.46441
H         57.60056        49.57494        -2.01562
H         59.75033        24.63361         0.42984
H         60.98815        26.77640         0.30157
H         61.08765        29.18443         0.73583
H         61.07082        31.10023         1.28561
H         61.07707        33.52566         0.99322
H         61.08476        35.37195         0.38818
H         61.06759        37.80887         0.22074
H         60.91414        39.47742        -0.82419
H         60.78931        41.76742        -1.61789
H         60.93212        43.73025        -1.49568
H         60.91043        46.14828        -1.94210
H         59.69437        48.28580        -2.11917
