         276
 CSIRO Nanostructure Databank - Neutral Graphene Oxide Data Set
C        -11.03685         0.71778        -0.90735
C         -9.76184         1.46152        -0.59937
C         -8.92532         0.81621         0.54013
C         -7.55998         1.50466         0.39910
C         -6.28400         0.76697         0.55208
C         -5.06691         1.47076         1.06001
C         -3.79500         0.76656         0.94731
C         -2.53988         1.52367         0.82037
C         -1.24991         0.77398         0.77432
C          0.02691         1.49512         1.22425
C          1.27066         0.98088         0.46158
C          2.56725         1.58169         0.98475
C          3.75428         0.70599         0.56594
C          5.11438         1.35113         0.63596
C          6.28545         0.66913         0.69578
C          7.57302         1.33206         0.33369
C          8.46128         0.45117        -0.50131
C          9.64597         1.17715        -1.09879
C         10.63320         0.29086        -1.70211
C         -9.90459         2.92762        -0.24015
C         -8.86093         3.63452         0.27757
C         -7.57951         2.98487         0.54681
C         -6.40205         3.67452         0.75781
C         -5.14924         2.98522         1.16479
C         -3.84717         3.74991         1.21184
C         -2.55941         3.03005         0.88139
C         -1.24663         3.80964         1.04559
C          0.03154         3.02287         1.09378
C          1.29632         3.69172         1.63044
C          2.57353         2.88830         1.36288
C          3.76787         3.66378         1.85951
C          5.15950         2.73030         0.15084
C          6.38669         3.57280         0.52087
C          7.64742         2.80285         0.17105
C          8.66324         3.44489        -0.70260
C          9.67734         2.54242        -1.24380
C         -8.98165         5.11944         0.57756
C         -7.67043         5.80781         0.25115
C         -6.48435         5.19728         0.98885
C         -5.15464         5.94395         0.74689
C         -3.85057         5.23357         1.03870
C         -2.53865         5.98815         0.75575
C         -1.23053         5.33519         1.18383
C          0.17420         5.96933         1.13143
C          1.43715         5.15181         1.18172
C          2.63764         5.78919         1.16084
C          4.00760         5.14762         1.38180
C          4.95728         5.56495         0.21935
C          6.21239         4.87081        -0.24337
C          7.52884         5.68746        -0.24992
C          8.60142         4.79534        -0.90088
C         -7.61935         6.91392        -0.51167
C         -6.33027         7.51266        -1.00940
C         -5.13585         7.12516        -0.16404
C         -3.85299         7.68821        -0.63495
C         -2.62470         6.83489        -0.53759
C         -1.36137         7.54673        -1.01537
C          0.31248         7.43156         0.97239
C          0.87513         8.60709         0.55102
C          2.88189         7.29429         1.12289
C          3.59680         7.76436        -0.12512
C          4.77848         6.84933        -0.46426
C          5.97658         7.47753        -1.10200
C          7.23081         6.96114        -1.00781
C         -6.31787         9.01538        -1.20618
C         -5.14113         9.66341        -1.32096
C         -3.85593         8.96459        -1.17896
C         -2.63201         9.62917        -1.48540
C         -1.38818         9.01379        -1.26886
C         -0.15582         9.66058        -1.46293
C          1.04182         9.21003        -0.80208
C          2.28763         9.58423        -1.23413
C          3.59809         9.25790        -0.53323
C          4.73470         9.58544        -1.47327
C          5.78222         8.78428        -1.72922
C        -11.14128        -0.60858        -0.76192
C        -10.20120        -1.43080         0.08877
C         -8.89663        -0.71355         0.48979
C         -7.59744        -1.45325         0.50535
C         -6.32826        -0.70202         0.79341
C         -5.03778        -1.42738         0.79025
C         -3.79110        -0.64067         0.38648
C         -2.52085        -1.37035         0.86908
C         -1.25496        -0.56770         0.49380
C          0.01992        -1.29400         0.21098
C          1.31959        -0.57286         0.36955
C          2.40324        -1.41882         1.07665
C          3.74426        -0.67734         1.20676
C          5.03414        -1.43569         1.34173
C          6.35569        -0.74653         1.12427
C          7.65947        -1.49851         1.01849
C          8.79731        -0.83361         0.25808
C          9.87053        -1.66660        -0.36084
C         10.67573        -1.04200        -1.44246
C         -9.97213        -2.84659        -0.38363
C         -8.74861        -3.46226        -0.49425
C         -7.49147        -2.59532        -0.53348
C         -6.11306        -3.39734        -0.52147
C         -5.10872        -2.94251         0.60934
C         -3.73427        -3.50862         0.31497
C         -2.56832        -2.82678         0.45737
C         -1.29018        -3.52260         0.13897
C          0.00521        -2.79459         0.04785
C          1.35134        -3.54278        -0.15360
C          2.58796        -2.77034         0.37336
C          3.86109        -3.55227         0.54768
C          5.04703        -2.94679         1.28180
C          6.35116        -3.71067         1.26846
C          7.74698        -3.02697         1.30288
C          8.77663        -3.75704         0.45179
C          9.75436        -3.13760        -0.24193
C         -8.66720        -4.85808        -0.77427
C         -7.46988        -5.58181        -0.66586
C         -6.27398        -4.90528        -0.40242
C         -5.05133        -5.66589        -0.14202
C         -3.74962        -4.92546        -0.13110
C         -2.48404        -5.71506        -0.12221
C         -1.24930        -5.00684         0.31671
C          0.03258        -5.75916         0.25647
C          1.33021        -5.02236         0.24013
C          2.49467        -5.72123         0.26597
C          3.84828        -5.04310         0.11161
C          4.98645        -5.88268         0.69309
C          6.29493        -5.21311         0.96119
C          7.50356        -5.91675         0.42055
C          8.84399        -5.26022         0.69384
C         -7.51864        -7.10998        -0.73139
C         -6.18861        -7.72731        -1.22027
C         -5.01445        -7.13844        -0.46439
C         -3.65476        -7.79138        -0.81386
C         -2.53507        -7.21499         0.08969
C         -1.21069        -7.88211        -0.18675
C         -0.04048        -7.19540        -0.14429
C          1.23244        -7.87915        -0.46184
C          2.50584        -7.16444        -0.14108
C          3.71597        -8.01854         0.07243
C          5.08787        -7.38082         0.31585
C          6.09028        -7.63919        -0.81013
C          7.40973        -7.00466        -0.38106
C         -6.16091        -9.24133        -1.09682
C         -5.01852        -9.93598        -0.90460
C         -3.71636        -9.31053        -0.69339
C         -2.55880       -10.01117        -0.57441
C         -1.23785        -9.39895        -0.14691
C          0.00001       -10.01998        -0.74101
C          1.21799        -9.35263        -0.71174
C          2.45372        -9.96754        -1.02661
C          3.71156        -9.38976        -0.54125
C          5.04438        -9.92369        -0.93792
C          6.13760        -9.14444        -1.04049
O          4.34205         3.26181         2.85843
O         10.06939        -0.92659         0.92138
O         -5.64393        -1.02596         2.05422
O          0.88053        -0.91084        -0.97006
O         -0.80212        -3.08321        -1.16096
O          2.91552         7.92993         2.17466
O         -0.69636        -5.51211         1.56421
O         -5.23898        -6.73656         0.89027
O         -5.23784         7.29372         1.28956
O         -0.43503         6.85472        -1.43585
O         -7.58830        -1.89769        -1.74962
O          3.51758        -9.14840         0.95576
O         -3.79006         4.62184         2.36286
O          8.22410         2.13208         1.35843
O          5.46236        -5.78723         2.04779
O          0.28022         6.99082         2.28625
O         -6.74811         1.11352        -0.77707
O          7.30185        -0.81774         2.25629
O         -5.30155         2.15101         2.35497
O          4.28600         3.15348        -0.61137
O         -1.98431         6.22465         2.06902
O          3.49886         6.87945        -1.25278
O         -2.64352         2.41761        -0.43905
O         -8.43267        -1.44266         1.70300
O          5.57983        -3.48417         2.50409
O         -3.39529        -7.56117        -2.16164
O          3.63288        -2.69604        -0.62804
O         -2.99005        -5.19099        -1.36715
O          2.01362        -7.22252        -1.53122
O         -6.77634         5.10018         2.33919
O          4.33754        -0.84952         2.50973
O         -0.41427         3.55484        -0.16035
O          3.56981         0.42926        -0.84273
H          3.20528         1.24135        -1.26807
O          1.55435        -3.64302        -1.58405
H          1.32608        -2.76949        -1.97646
O         -3.79701        -0.57118        -1.05240
H         -3.18726         0.13900        -1.34511
O          5.66233        -7.02689        -2.03954
H          6.24202        -7.33655        -2.76465
O          4.59268         5.79852         2.52838
H          5.25009         5.16759         2.90767
O         -5.58271        -3.54562         1.82615
H         -5.73552        -2.81585         2.47592
O         -9.51045         1.21192         1.79011
H         -9.19522         0.59346         2.48367
O          0.13477         1.16228         2.62321
H          0.48839         1.93836         3.12184
O          6.48371         3.87977         1.92279
H          6.99776         3.14395         2.34311
O         -7.83726        -7.61299         0.56780
H         -7.08219        -7.39185         1.16240
O          1.88517        -1.66671         2.39249
H          2.62919        -1.56940         3.03431
O        -10.07982         5.69343        -0.12170
H         -9.96580         5.51723        -1.07789
O          5.69703        -8.07986         1.40858
H          5.11518        -8.01202         2.19425
O         -2.82240         5.77044        -1.52434
H         -1.93054         5.52242        -1.86698
O         -1.16007        -9.70973         1.29500
H         -1.89183        -9.19582         1.71823
O         -9.02372         1.42288        -1.84523
H         -8.65970         0.51989        -1.98468
O        -10.95449        -1.64032         1.32270
H        -10.30296        -1.93195         2.00165
O         -5.48307        -3.17701        -1.78003
H         -6.13176        -2.59500        -2.28323
O          8.24100        -3.18165         2.64149
H          7.70193        -2.59491         3.21930
O         -2.53086        -1.38478         2.31602
H         -2.80493        -0.49996         2.64292
O          4.10996        -5.05775        -1.30379
H          3.35522        -4.59192        -1.74206
O         -6.08059         6.91483        -2.31954
H         -6.80699         7.18232        -2.92000
O         -2.84080        -7.47748         1.48353
H         -2.22184        -6.92744         2.01912
O          6.06024         4.59226        -1.66319
H          5.12464         4.33463        -1.83428
O          7.61478         0.02864        -1.61483
H          8.19224        -0.24689        -2.35838
O          1.16938         1.51882        -0.87232
H          0.79135         0.80858        -1.44804
O          1.10241         9.53963         1.54679
H          1.14331         9.05802         2.40544
O          1.12357         3.72006         3.07446
H          1.88714         4.18085         3.48635
O          9.88649        -5.85989        -0.06168
H          9.66892        -5.79188        -1.01322
O          3.75300        10.08339         0.63042
H          2.97712         9.93540         1.22429
O         -6.00839        -7.36892        -2.60163
H         -5.02081        -7.43456        -2.78116
O          7.95745         6.04211         1.07034
H          7.76673         5.28761         1.67552
H         11.41123        -1.67500        -1.96147
H         11.34626         0.72656        -2.41861
H         10.52481         2.99610        -1.78151
H          9.36326         5.28187        -1.53107
H          8.07500         7.52877        -1.43020
H          6.58732         9.14155        -2.38973
H          4.69290        10.57899        -1.94516
H          2.35641        10.11103        -2.19961
H         -0.11577        10.59418        -2.04672
H         -2.66163        10.68119        -1.80695
H         -5.11338        10.74248        -1.53504
H         -7.26945         9.55351        -1.33374
H         -8.55781         7.31318        -0.93440
H         -9.17524         5.24504         1.67464
H        -10.85304         3.44607        -0.45291
H        -11.81326         1.26556        -1.46459
H        -12.04683        -1.12967        -1.10916
H        -10.87751        -3.47809        -0.40451
H         -9.59122        -5.39348        -1.04801
H         -8.34400        -7.41575        -1.42087
H         -7.10717        -9.78241        -1.24832
H         -5.05290       -11.03727        -0.87856
H         -2.59790       -11.11318        -0.56597
H         -0.02225       -11.08972        -1.00308
H          2.46457       -10.99168        -1.43215
H          5.11410       -10.99892        -1.16811
H          7.09335        -9.59439        -1.35504
H          8.34064        -7.43638        -0.78667
H          9.09516        -5.39897         1.77866
H         10.52663        -3.75242        -0.73241
