         280
 CSIRO Nanostructure Databank - Neutral Graphene Oxide Data Set
C         30.34647        31.87574         0.51829
C         30.48120        33.09586         0.04596
C         30.49669        36.12533        -1.04013
C         30.53541        37.30983        -0.71807
C         31.37711        40.11146        -1.25906
C         30.96150        40.68190        -2.31272
C         32.83775        29.27549         1.67195
C         31.78479        29.88042         1.37855
C         32.79986        32.05731         0.87989
C         31.44263        31.15431         0.87148
C         32.80056        32.97823        -0.34633
C         31.48993        33.84858        -0.40911
C         32.84313        35.88627        -0.62639
C         31.61237        35.13637        -1.17631
C         32.80449        37.22965         0.01335
C         31.44054        38.06184         0.18925
C         32.82461        40.12302         0.81300
C         31.77267        39.50839        -0.11049
C         32.90729        41.64038         0.76961
C         31.66925        42.33629         0.81272
C         32.91750        44.25824         0.86538
C         31.75412        43.75462         0.85217
C         35.64138        28.22285         2.81045
C         35.38151        29.31916         1.98606
C         34.09585        30.08754         1.96693
C         35.25601        31.77447         0.49072
C         34.09287        31.26228         0.99087
C         35.27658        33.12133        -0.10789
C         34.08156        33.78391        -0.39994
C         35.33564        35.95321        -0.85119
C         34.04850        35.19776        -0.60069
C         35.34538        37.35627        -0.32420
C         34.12636        37.96505         0.19824
C         35.42297        40.18273         0.47475
C         34.12544        39.46309         0.34509
C         35.48877        41.59466         1.02912
C         34.15249        42.32441         0.84171
C         35.53356        44.42442         1.02324
C         34.20644        43.73927         0.91467
C         35.59328        45.87465         0.67004
C         37.92399        28.04851         2.54193
C         36.70755        27.61190         3.11109
C         37.83951        29.10583         1.60024
C         36.57798        29.75143         1.37643
C         37.81464        31.76948         0.65993
C         36.54303        30.95837         0.46049
C         37.81091        33.17484         0.16628
C         36.53233        33.83586        -0.21332
C         37.85995        35.88393        -0.62710
C         36.58919        35.18715        -0.49298
C         37.81814        37.39529        -0.84173
C         36.64182        38.00677        -0.09798
C         38.00074        40.20991         0.63147
C         36.70066        39.39127         0.49305
C         37.85352        41.64394         0.14217
C         36.69396        42.30250         0.38141
C         37.83189        44.50561        -0.20658
C         36.51481        43.75322        -0.01618
C         37.74995        45.99808        -0.44480
C         36.47170        46.49185         0.07480
C         40.85935        24.74852         1.58987
C         40.06219        25.42500         2.30082
C         40.51338        27.35590         0.96814
C         39.84193        26.79698         2.08740
C         40.23066        28.77630         0.55795
C         39.07783        29.64973         0.99713
C         40.31107        31.71955         0.33017
C         39.08548        30.98659         0.62768
C         40.32374        33.07087         0.01820
C         39.05548        33.69468        -0.52773
C         40.28541        35.86075        -1.20365
C         39.05334        35.20682        -0.68491
C         40.34835        37.41438        -1.17505
C         39.15255        38.04710        -0.49431
C         40.47437        40.24369        -0.05571
C         39.21426        39.43464         0.09791
C         40.39296        41.71623        -0.25252
C         39.03331        42.34492        -0.52638
C         40.28463        44.61291        -0.74108
C         39.01878        43.86244        -0.32100
C         40.32083        46.10064        -0.38512
C         38.99597        46.80813        -0.54114
C         40.10720        48.77643         0.33025
C         39.10691        48.21825        -0.15881
C         42.79410        24.58442        -0.11575
C         41.67617        25.18825         0.54844
C         42.47636        27.30425        -0.70723
C         41.50476        26.59254         0.27017
C         42.72273        28.74248        -0.19986
C         41.44982        29.49519        -0.02669
C         42.75375        31.37262         0.74923
C         41.54840        30.92080         0.32706
C         42.85095        33.52598         0.34190
C         41.60044        33.69432        -0.49944
C         42.75469        35.55406        -1.52634
C         41.54270        35.09598        -1.08350
C         42.80467        37.71566        -1.68552
C         41.63326        38.14721        -1.10478
C         42.84044        40.36352        -1.07061
C         41.69524        39.51582        -0.52128
C         42.85510        41.74083        -0.43145
C         41.56053        42.43471        -0.38987
C         42.72110        44.57789        -0.10084
C         41.56840        43.89916        -0.36740
C         42.70812        46.02381         0.36714
C         41.46689        46.75828        -0.11165
C         42.71418        48.75487         0.74086
C         41.51208        48.56026        -0.08141
C         43.59401        25.11098        -0.90633
C         45.15651        27.18052        -0.69707
C         43.83217        26.55358        -0.97274
C         45.20506        28.56205        -0.08480
C         43.93690        29.32392         0.02858
C         45.19868        31.58723        -0.00667
C         44.09679        30.71691         0.66400
C         45.35555        33.14801         0.10294
C         44.06215        33.93662        -0.10511
C         45.31421        35.95957        -1.10335
C         44.00767        35.33565        -0.69554
C         45.38237        37.44588        -1.44448
C         44.10321        38.25975        -1.29180
C         45.24438        40.15282        -0.11315
C         44.11782        39.55210        -0.88910
C         45.35902        41.67024        -0.41185
C         44.03164        42.40150        -0.27065
C         45.14192        44.44634         0.70429
C         44.07504        43.91692        -0.26878
C         45.22321        45.99679         0.72019
C         44.07046        46.77513         0.15331
C         43.78452        48.14454         0.72845
C         47.48667        27.26579        -0.58580
C         46.47157        26.51685        -0.55442
C         47.74848        28.63577        -0.59852
C         46.51695        29.34711        -0.13366
C         47.66472        31.52227        -0.90107
C         46.39136        30.82365        -0.41476
C         47.67085        33.02172        -0.95660
C         46.32243        33.71132        -0.98944
C         47.75732        35.92029        -0.79675
C         46.46650        35.24124        -0.93780
C         47.80438        37.38494        -0.76081
C         46.58208        38.11214        -0.79279
C         47.78154        40.13602        -0.15544
C         46.56458        39.45214        -0.36534
C         47.83099        41.61107         0.24374
C         46.44201        42.25664         0.50798
C         47.67885        44.31102         1.36122
C         46.53954        43.80077         0.41014
C         47.42605        45.62750         1.64703
C         46.42114        46.35871         1.24978
C         50.27775        28.83223        -0.25773
C         49.01617        29.32155        -0.82624
C         50.18060        31.62536        -0.32513
C         49.02427        30.86292        -0.88652
C         50.03883        32.94384        -0.01067
C         48.91575        33.74082        -0.56580
C         50.17531        35.88210        -0.21381
C         48.90127        35.22354        -0.44209
C         50.34671        37.29621        -0.77126
C         49.03985        38.07502        -0.67988
C         50.70217        39.43385         1.64455
C         48.98038        39.49011        -0.57532
C         50.50149        40.74746         2.15451
C         48.58647        42.01353         1.50804
C         49.89358        43.59682         2.56079
C         48.66540        43.37373         1.82442
C         51.26073        29.46089         0.13863
C         52.35674        31.72894         0.76931
C         51.64419        30.87239        -0.19632
C         52.18063        32.90845         1.06232
C         50.95661        33.75962         0.92345
C         52.41498        35.86740         0.53626
C         51.19072        35.13685         0.36528
C         52.70821        36.95610         0.01177
C         51.88487        38.15957        -0.29671
C         52.76250        40.17516         1.03944
C         51.84774        39.11690         0.87412
C         52.72988        41.25204         1.70260
C         51.50293        41.75796         2.20899
C         51.01031        43.05578         2.56148
O         48.60814        33.42642        -2.00039
O         34.72975        40.10416        -0.81142
O         37.84617        32.87955         1.60637
O         46.75211        30.97647        -1.87574
O         38.24370        46.44740        -1.73447
O         39.13352        27.56277         2.98977
O         39.40771        38.23370         0.92252
O         36.75746        38.23869         1.37573
O         44.57279        27.15890        -2.03957
O         50.72387        37.10722        -2.20388
O         42.81700        36.57067        -2.49436
O         46.02111        28.75339         1.10453
O         49.13022        41.06779         2.40700
O         42.80841        32.60839         1.40638
O         40.05132        36.69268        -2.40596
O         41.50789        39.76435         0.89765
O         49.26014        30.02671        -2.07034
O         42.67312        40.59166        -2.44280
O         40.38805        29.03191        -0.87913
O         33.49314        37.20752         1.30554
O         49.55312        36.71094        -2.95332
H         49.58158        35.72212        -2.92000
O         50.25604        33.87116         2.16588
H         50.77138        34.45878         2.75723
O         44.67210        44.06772         2.01915
H         45.12323        44.63291         2.68278
O         38.81914        42.16713        -1.96260
H         39.47809        42.74617        -2.42150
O         30.98066        37.89362         1.51533
H         31.75862        37.70745         2.09246
O         45.96750        33.41291         1.38351
H         45.34460        33.13270         2.08706
O         41.73816        49.02109        -1.36000
H         40.91735        48.97379        -1.88973
O         30.51037        41.65312         0.90138
H         29.74711        42.24681         0.75924
O         41.84819        27.34532        -1.98948
H         42.50371        27.66515        -2.64569
O         43.67964        36.18049         0.49518
H         44.44948        36.15552         1.10504
O         36.65197        30.47891        -0.90908
H         35.87324        29.91784        -1.10874
O         45.69340        33.40104        -2.24579
H         46.38051        33.41841        -2.94550
O         35.72272        41.48507         2.44292
H         36.03181        42.36594         2.76299
O         52.29923        38.88262        -1.40061
H         52.20393        38.33193        -2.20837
O         45.82335        41.81099        -1.77719
H         45.14993        41.39559        -2.36291
O         38.24288        40.34733         2.04696
H         38.33892        39.43572         2.40570
O         32.62056        39.72447         2.17690
H         31.80131        40.15423         2.50203
O         44.87284        39.90655         1.26795
H         43.91256        40.08388         1.37258
O         45.65394        37.47673        -2.88230
H         44.86053        37.11525        -3.33625
O         44.50965        30.51394         2.05361
H         44.17401        31.27931         2.56933
O         46.95688        44.23198        -0.88550
H         46.18827        44.17251        -1.50663
O         40.24900        44.56713        -2.20661
H         39.52713        45.18418        -2.48691
O         42.58246        45.94801         1.81252
H         41.73663        45.50679         2.03526
O         44.26181        46.95283        -1.24297
H         45.16786        47.28840        -1.40340
O         44.45755        44.29591        -1.62724
H         43.82183        43.87875        -2.24798
O         41.91823        32.85902        -1.67955
H         41.08919        32.79580        -2.20987
O         35.34449        36.08049        -2.32670
H         36.08921        36.69667        -2.56319
O         35.81963        43.78824        -1.27607
H         36.36098        43.31728        -1.94468
O         32.70632        32.87834         2.03856
H         32.94767        32.32890         2.82078
O         33.91898        30.66411         3.27607
H         33.92438        29.93657         3.93444
O         46.16235        41.92686         1.87604
H         45.34864        42.41439         2.15819
O         37.56374        37.66360        -2.24721
H         38.35220        37.32442        -2.74698
O         48.51923        42.29230        -0.83512
H         47.88345        42.38067        -1.58330
O         52.23870        30.91499        -1.45192
H         51.67931        30.42606        -2.09252
O         32.78457        32.16586        -1.53021
H         32.77248        32.77380        -2.30353
O         31.88554        34.81811        -2.55006
H         31.03925        34.59435        -2.99001
O         49.68303        38.54224         1.79300
H         48.93546        39.01790         2.22239
O         50.09335        40.21587        -0.79670
H         49.84523        41.17491        -0.86532
O         36.08876        44.24295         2.33441
H         35.52784        44.72098         2.98081
O         38.99603        33.18403        -1.90849
H         38.18418        33.53793        -2.33234
