         320
 CSIRO Nanostructure Databank - Neutral Graphene Oxide Data Set
C         30.34136        31.50604        -0.01971
C         30.34888        32.76558         0.08626
C         30.37477        35.86795         0.49869
C         30.39353        37.11022         0.66586
C         30.57176        40.27895         1.13523
C         30.54845        41.51515         1.34479
C         32.76548        28.68135         0.00077
C         31.63729        29.25069        -0.07342
C         32.73060        31.38108         0.53180
C         31.39533        30.60897         0.11812
C         32.70581        32.86051         0.22228
C         31.51938        33.59781         0.15496
C         32.69296        35.80587         0.16649
C         31.49863        35.03794         0.25233
C         32.71140        37.22297         0.20447
C         31.51206        37.97760         0.53480
C         32.85206        40.09065         0.46013
C         31.55134        39.36932         0.67766
C         33.00018        41.52762         0.86000
C         31.76989        42.27004         1.81499
C         32.92424        44.30827         1.03307
C         31.96219        43.68929         1.48580
C         35.67595        27.60778         0.78986
C         35.32423        28.57749        -0.12498
C         34.06313        29.28988        -0.03676
C         35.32736        31.37230         0.44292
C         34.01437        30.67777         0.10053
C         35.27335        32.88424         0.27420
C         33.97354        33.62291         0.57905
C         35.19237        35.84398         0.33717
C         33.96606        35.02005        -0.09713
C         35.11627        37.26493        -0.23655
C         33.93467        37.95036        -0.17288
C         35.14500        40.25500        -0.77493
C         33.79437        39.44500        -0.55654
C         35.20172        41.72195        -0.21955
C         34.06934        42.35420         0.21623
C         35.30766        44.55636         0.16842
C         33.93786        43.89654         0.00749
C         35.41708        46.03229        -0.08097
C         37.56824        27.74634         2.01301
C         36.44801        26.93420         1.57281
C         37.78172        28.61686        -0.76078
C         36.50653        29.35334        -0.50096
C         37.66699        31.51641        -0.66020
C         36.48456        30.71972        -0.30717
C         37.77377        32.87383         0.00811
C         36.43967        33.63716         0.04745
C         37.65193        35.76192        -0.56257
C         36.44888        35.05176         0.02057
C         37.62482        37.26636        -0.14362
C         36.36887        37.96694        -0.71941
C         37.71127        39.96012        -0.90485
C         36.36780        39.45653        -0.28067
C         37.67924        42.08674         0.03897
C         36.45869        42.48252        -0.48606
C         37.75789        44.73517        -0.89036
C         36.39055        43.94642        -0.91088
C         37.78492        46.23522        -0.62876
C         36.46994        46.67774        -0.15972
C         40.35396        25.17098         2.58368
C         39.31084        25.96821         2.37402
C         40.30060        27.46022         0.67547
C         38.86600        27.14393         1.98542
C         40.18215        28.84854         0.09675
C         39.06565        29.35578        -0.52569
C         40.24283        31.57265        -0.73552
C         39.00684        30.79835        -0.84916
C         40.20879        32.96260        -0.61363
C         38.99247        33.64769        -0.43857
C         40.15178        35.94961        -0.57196
C         38.96424        35.09671        -0.05870
C         40.17436        37.32135         0.16788
C         38.92848        38.05969        -0.26052
C         40.19600        40.20493         0.05220
C         38.97782        39.42632        -0.28272
C         40.19546        41.69974        -0.16909
C         38.99547        42.55097        -0.48774
C         40.08734        44.68530         0.28137
C         39.15220        44.05168        -0.77367
C         40.21980        46.18122         0.01080
C         39.08104        46.89846        -0.32182
C         40.44551        48.84563        -0.40847
C         39.32264        48.28888        -0.59631
C         42.87699        25.24927         2.17774
C         41.54243        25.71128         2.15531
C         42.81211        27.57623         0.80127
C         41.55112        27.17414         1.53743
C         42.63409        28.62070        -0.28637
C         41.51607        29.63629         0.08055
C         42.78056        31.55821        -0.94572
C         41.49231        30.78839        -0.96126
C         42.80781        32.95213        -0.74950
C         41.50007        33.69242        -0.78277
C         42.80138        35.99211        -0.67968
C         41.48659        35.18601        -0.72830
C         42.66365        37.25339         0.21437
C         41.44646        38.10116        -0.23239
C         42.70622        40.21144         0.31077
C         41.40498        39.54448         0.25003
C         42.67427        41.68748         0.52905
C         41.39326        42.45872         0.31877
C         42.57741        44.61556         0.92292
C         41.42221        43.94426         0.28236
C         42.60446        46.12555         0.91675
C         41.63323        46.72816        -0.13171
C         42.95120        48.77087         0.25416
C         41.71148        48.32430        -0.19430
C         43.99302        25.65953         1.79540
C         45.30746        27.50872         0.69043
C         44.04006        26.65408         0.62752
C         45.28264        28.63766        -0.37659
C         43.97241        29.28672        -0.73471
C         45.24296        31.49471        -0.60840
C         44.03848        30.76206        -1.26613
C         45.29476        32.99532        -1.05333
C         44.00491        33.70139        -0.70353
C         45.33370        35.97470        -0.61494
C         44.05367        35.13525        -0.23008
C         45.30304        37.33922         0.11209
C         43.98217        38.05198         0.29174
C         45.16270        40.34162        -0.16600
C         43.91888        39.54141         0.26912
C         45.21966        41.71602         0.57482
C         43.92683        42.53204         0.28924
C         45.19325        44.56948         1.33290
C         43.88600        43.84646         1.07106
C         45.13642        46.07814         1.63016
C         43.89259        46.84887         1.31662
C         43.99516        48.13478         0.59896
C         47.70619        27.35766         0.09148
C         46.63055        26.83826         0.41000
C         47.92195        28.58365        -0.68758
C         46.59614        29.32200        -0.75576
C         47.78577        31.47984        -0.10483
C         46.63475        30.84300        -0.93307
C         47.75806        32.96955         0.09615
C         46.60884        33.71007        -0.55565
C         47.89055        35.92079        -0.01636
C         46.63834        35.19591        -0.39576
C         47.84634        37.38613        -0.41066
C         46.64332        38.09951         0.25059
C         47.77692        40.35113         0.62546
C         46.60573        39.61575        -0.16640
C         47.79329        41.82281         0.29455
C         46.47067        42.55593         0.16451
C         47.77969        44.78071         0.52926
C         46.54581        43.84445         1.07746
C         47.57582        46.05143         1.32677
C         46.47877        46.62654         1.42763
C         50.49441        28.75614        -0.37417
C         49.19969        29.40776        -0.81787
C         50.26962        31.74625        -0.15674
C         49.11216        30.71065         0.10356
C         50.21209        32.95151         0.76955
C         48.95395        33.81052         0.66082
C         50.34288        35.98112        -0.20168
C         49.08253        35.24584         0.07655
C         50.34219        37.34376        -0.39699
C         49.11931        38.10707        -0.00580
C         50.26026        40.38379        -0.31849
C         49.10953        39.58026         0.28685
C         50.32384        41.76352         0.37361
C         49.05594        42.60670         0.04427
C         50.34770        44.65326         0.14265
C         49.09172        44.03294         0.77935
C         51.51742        29.47836        -0.22009
C         52.54218        31.54035         0.98776
C         51.82674        30.77653         0.13289
C         52.44997        32.61475         1.67276
C         51.21163        33.35755         1.66508
C         52.80568        36.09960        -0.28803
C         51.61906        35.21035        -0.53790
C         52.71495        37.29614        -0.60061
C         51.55635        38.18128        -0.88001
C         52.62474        40.42690        -0.19288
C         51.59201        39.56929        -0.29428
C         52.74032        41.72560        -0.07366
C         51.68730        42.57518         0.00797
C         51.38817        43.95694         0.07372
O         44.61394        28.32630        -1.62662
O         37.74659        40.36045        -2.06193
O         38.17690        31.27037        -1.99458
O         51.65980        34.15566        -1.09822
O         47.33322        32.04901         1.16623
O         37.76543        45.71152        -1.98487
O         33.55530        40.45809         1.70621
O         37.79215        27.44466        -1.13692
O         42.99758        43.98067         2.19141
O         45.13011        45.12649         2.69944
O         33.18243        39.52530        -1.89715
O         39.69909        41.84753        -1.56078
O         42.74838        46.75397         2.20952
O         47.16786        28.61004        -1.91635
O         41.36719        30.12550        -2.30824
O         41.81145        41.95197         1.66486
O         49.39665        38.63385         1.34657
O         47.07337        34.51903        -1.66715
O         44.69898        37.44309         1.43113
O         41.44197        34.48550        -2.03226
O         46.31421        42.87108        -1.22829
H         47.04025        43.49612        -1.48627
O         51.08507        34.41741         2.46993
H         50.14463        34.72718         2.47684
O         50.23558        32.15217        -1.46465
H         50.04153        31.38274        -2.05966
O         47.05262        39.68607        -1.52604
H         46.96279        40.62176        -1.81935
O         41.08675        31.16987        -3.27095
H         40.09880        31.24923        -3.24041
O         39.83591        44.26519        -2.01556
H         39.89197        43.39713        -2.48371
O         43.01764        36.43137        -2.01659
H         42.78810        35.68101        -2.61202
O         38.03277        32.49892         1.41045
H         38.54136        33.23423         1.82470
O         49.34812        43.91622         2.15674
H         49.03049        44.72995         2.60609
O         35.09687        36.02273         1.78887
H         35.88163        36.56211         2.05259
O         32.74785        31.29793         2.00410
H         32.80164        32.21989         2.35904
O         31.85072        38.94221        -1.85768
H         31.42113        39.38755        -2.62868
O         41.41932        28.01853         2.73624
H         42.16145        27.79438         3.33766
O         45.37095        28.12653         1.96891
H         45.22760        27.42495         2.64222
O         37.57521        35.54535        -1.98231
H         37.05229        36.27752        -2.38875
O         35.80747        44.26781         1.46066
H         35.11382        44.48455         2.12014
O         49.06582        42.98335        -1.36127
H         49.30600        42.17581        -1.88378
O         36.40620        37.93039        -2.15835
H         35.89584        38.71195        -2.50269
O         46.96193        43.36208         2.35169
H         46.48856        43.88096         3.04404
O         37.50966        29.04285         2.21286
H         36.61616        29.47773         2.12756
O         44.86977        40.62224        -1.55664
H         44.76503        39.77190        -2.03516
O         47.60198        40.30706         2.05713
H         48.17531        39.57473         2.39656
O         49.15248        30.23142         1.44193
H         48.67162        30.86533         2.01828
O         46.94744        31.09090        -2.31694
H         46.21596        30.67679        -2.84185
O         45.18461        41.47266         1.97594
H         46.08070        41.18373         2.28601
O         35.84931        44.08344        -2.21959
H         36.25987        44.89188        -2.61801
O         45.36433        36.30877        -2.01563
H         45.49419        35.46268        -2.50881
O         36.25400        39.51629         1.14766
H         36.75246        38.75839         1.54872
O         45.31811        33.09478        -2.49129
H         46.16226        32.70333        -2.81617
O         42.11676        46.20648        -1.38425
H         41.35687        45.91059        -1.93653
O         39.47324        44.48672         1.57655
H         40.14147        44.65713         2.27516
O         51.39293        38.33376        -2.30718
H         51.41375        37.44719        -2.72696
O         47.64075        45.08957        -0.83671
H         48.53845        45.25138        -1.20561
O         33.37624        44.11161        -1.27264
H         34.10935        44.11401        -1.93874
O         35.22915        40.41542        -2.19994
H         36.06617        40.90053        -2.41418
O         40.08175        26.46795        -0.21341
H         39.33162        26.70551        -0.82861
O         41.51546        38.32828        -1.65042
H         40.94644        37.66673        -2.11997
O         32.04578        42.00078         3.14127
H         32.42254        41.09195         3.19875
O         49.34884        29.79114        -2.17303
H         48.55832        29.44799        -2.66777
O         37.42179        37.21799         1.32003
H         38.33516        37.20020         1.73407
O         42.12150        27.92619        -1.45242
H         42.88757        27.43586        -1.83839
O         50.37159        41.48024         1.75727
H         50.16974        42.30146         2.26606
O         44.14737        34.98142         1.21996
H         43.60455        34.20850         1.48554
O         34.04673        34.76516        -1.51146
H         34.04148        35.62376        -1.98428
O         38.94716        35.07968         1.40430
H         38.00678        35.16765         1.68449
O         41.76512        30.27488         1.33046
H         41.68068        29.59717         2.05194
O         43.99862        25.94224        -0.59036
H         43.20778        25.36429        -0.59121
O         37.84382        41.38259         1.18341
H         36.97252        41.06137         1.53242
O         33.88874        33.73706         2.03424
H         34.43139        34.52177         2.31000
O         46.99913        37.97354         1.63696
H         46.18591        38.10343         2.17851
O         44.90902        31.38414         0.77880
H         45.62909        31.76107         1.33549
O         44.22893        30.70229        -2.68817
H         43.36803        30.44229        -3.09027
O         47.85619        37.40569        -1.84497
H         46.99229        37.03921        -2.16829
O         39.83115        36.36446        -1.92205
H         39.94758        35.57605        -2.50451
O         43.82267        42.97568        -1.07807
H         44.21056        42.28423        -1.66747
O         42.39422        36.77845         1.54625
H         43.27105        36.57139         1.96159
O         49.94554        40.55909        -1.71572
H         50.26789        39.77151        -2.22381
O         48.53112        34.12789         2.02652
H         48.22001        33.29513         2.44832
O         40.01018        37.29283         1.60097
H         40.77455        36.82802         2.02138
O         35.57677        31.04453         1.87524
H         34.72311        31.22349         2.34229
