         671
 CSIRO Nanostructure Databank - Neutral Graphene Oxide Data Set
C          6.08321        31.62079        -1.06968
C          6.10539        32.96773        -1.26264
C          8.42872        27.36045         0.07257
C          8.36256        28.84102         0.33157
C          7.21558        29.55537        -0.33266
C          8.51207        31.63947        -0.55389
C          7.26658        30.88848        -0.65308
C          8.53065        33.00236        -0.79017
C          7.32837        33.73131        -1.12143
C          8.61424        35.84810        -1.33998
C          7.37329        35.10470        -1.31341
C          8.63759        37.23756        -1.59472
C         10.94667        23.04135         0.64014
C         10.77159        24.47123         0.84571
C          9.69154        25.23418         0.24096
C         10.82880        27.39443         0.59676
C          9.60345        26.64977         0.35400
C         10.87090        28.77110         0.31491
C          9.69145        29.50880         0.07807
C         10.96471        31.54636        -0.40027
C          9.74338        30.89656        -0.26713
C         11.00443        32.94456        -0.86458
C          9.79894        33.78834        -0.55484
C         11.06931        35.84011        -1.37998
C          9.84538        35.16660        -1.17452
C         11.07249        37.24127        -1.59917
C          9.84541        37.93902        -1.65933
C         11.07071        40.15615        -1.46647
C          9.82321        39.42872        -1.92316
C         11.04239        41.54064        -1.33041
C         13.41843        18.80723         0.99828
C         13.38645        20.21311         1.14069
C         12.18458        20.94873         0.91087
C         13.22293        23.07378         1.68757
C         12.08616        22.34917         1.05300
C         13.34144        24.55006         1.53796
C         12.06179        25.26303         1.26475
C         13.39509        27.39618         0.93798
C         12.10061        26.66230         0.76590
C         13.34778        28.91184         1.01951
C         12.20005        29.41932         0.16885
C         13.44152        31.68753         0.14715
C         12.24480        30.84290        -0.25531
C         13.58722        32.89090        -0.77553
C         12.30861        33.60365        -1.13207
C         13.68421        35.79950        -1.38580
C         12.35086        35.07849        -1.42014
C         13.66316        37.30162        -1.43346
C         12.34445        38.01670        -1.64035
C         13.49965        40.15872        -1.03114
C         12.29547        39.46256        -1.32386
C         13.46023        41.58384        -0.88478
C         12.22549        42.27554        -1.04794
C         13.33251        44.44397        -0.67798
C         12.18878        43.69689        -0.96273
C         13.31178        45.87406        -0.71448
C         15.88592        14.53727         1.41173
C         15.86794        15.93930         1.27735
C         14.64948        16.66244         1.11745
C         15.85619        18.80133         1.30037
C         14.62568        18.07522         1.13780
C         15.83697        20.21465         1.48819
C         14.59606        20.89962         1.47594
C         15.78572        23.07240         2.13349
C         14.51320        22.30642         1.89776
C         15.77001        24.58301         2.23280
C         14.50352        25.24410         1.79527
C         15.85407        27.47322         1.51426
C         14.54922        26.72345         1.61073
C         15.89361        28.84938         0.94201
C         14.68134        29.56153         0.69207
C         15.95713        31.61407         0.30555
C         14.72090        30.89629         0.29574
C         15.99950        33.01531         0.04216
C         14.87382        33.66560        -0.65684
C         15.97913        35.87485        -0.38168
C         14.87446        35.12582        -0.82086
C         15.96528        37.31790        -0.45298
C         14.80441        38.04621        -0.86498
C         16.01807        40.22605        -0.69801
C         14.73523        39.44738        -0.82109
C         15.86900        41.67382        -0.28938
C         14.64269        42.33684        -0.54285
C         15.73796        44.48951        -0.06832
C         14.57757        43.75369        -0.40994
C         15.70222        45.99427         0.07659
C         14.45060        46.63910        -0.47704
C         15.65812        48.80098        -0.58152
C         14.46209        48.03949        -0.63321
C         15.63533        50.20145        -0.58749
C         18.22347        10.46682        -0.04263
C         18.27346        11.78198         0.54651
C         17.12717        12.39144         0.99413
C         18.31921        14.54703         0.99532
C         17.16159        13.76068         1.62190
C         18.39353        15.97343         1.53183
C         17.09307        16.69659         1.31188
C         18.34693        18.83658         1.37250
C         17.09667        18.09825         1.31107
C         18.31514        20.25943         1.54644
C         17.07586        20.91841         1.65314
C         18.33873        23.16047         1.75507
C         17.05351        22.39455         1.71800
C         18.35656        24.60349         2.08555
C         17.08697        25.40201         2.39136
C         18.32325        27.38793         1.57087
C         17.13213        26.75042         1.69520
C         18.42315        28.74098         0.89221
C         17.12193        29.51050         0.86257
C         18.35406        31.66722         0.90081
C         17.15577        30.92361         0.66283
C         18.34161        33.07398         0.77434
C         17.16139        33.76327         0.31415
C         18.32601        35.94081         0.43613
C         17.14869        35.19298         0.13953
C         18.33526        37.34792         0.28689
C         17.13763        38.05564        -0.05322
C         18.23852        40.19141         0.57697
C         17.10093        39.45849         0.00402
C         18.19507        41.71524         0.62686
C         16.98759        42.41330         0.12223
C         18.16632        44.62702         0.60594
C         16.94234        43.82562         0.19541
C         18.23978        45.96971        -0.10551
C         16.94870        46.58896        -0.61197
C         18.11945        48.78602        -0.61384
C         16.94754        48.10285        -0.54805
C         18.14154        50.28131        -0.89622
C         16.82904        50.98614        -0.60623
C         18.05096        53.17088        -0.41448
C         16.81190        52.35903        -0.52258
C         18.17341        54.47773        -1.05260
C         20.31632         6.44327        -1.90841
C         20.42235         7.69322        -1.24862
C         19.28865         8.44531        -0.92097
C         20.70258        10.23862         0.17357
C         19.36164         9.72842        -0.31349
C         20.72791        11.74177         0.33403
C         19.59381        12.43706         0.64125
C         20.84793        14.50865         1.26524
C         19.65866        13.83936         1.04268
C         20.83100        15.96731         1.43831
C         19.60956        16.69335         0.93446
C         20.79630        18.87374         1.37441
C         19.58515        18.16516         1.27775
C         20.78865        20.30131         1.48101
C         19.55948        20.99905         1.60345
C         20.83826        23.06008         1.99743
C         19.60906        22.40287         1.79514
C         20.84059        24.51382         2.45659
C         19.55125        25.24659         2.10913
C         20.86348        27.45347         2.11741
C         19.55773        26.72608         2.10063
C         20.92173        28.84158         1.48016
C         19.59472        29.57200         1.35824
C         20.76694        31.73841         1.57677
C         19.56123        30.94997         1.30857
C         20.73006        33.16152         1.44702
C         19.53117        33.84344         1.04676
C         20.70690        36.01370         1.14423
C         19.51570        35.24289         0.87449
C         20.73383        37.40009         0.95648
C         19.64149        38.10301         0.22259
C         20.68878        40.29989         0.93541
C         19.54332        39.54889         0.63873
C         20.64463        41.74612         0.94299
C         19.47568        42.43756         0.69154
C         20.66392        44.57096         0.41343
C         19.47753        43.88035         0.51685
C         20.70969        45.98777         0.10059
C         19.43266        46.61217        -0.28761
C         20.70954        48.79479        -0.60306
C         19.41494        48.04386        -0.69374
C         20.58423        50.17498        -0.02075
C         19.30109        50.92537        -0.14273
C         20.61821        53.08922        -0.49295
C         19.35438        52.43438        -0.11927
C         20.65002        54.38524        -0.96592
C         19.40643        55.09528        -1.25351
C         20.70225        56.96628        -2.25328
C         19.48567        56.37767        -1.88215
C         20.74243        58.26105        -2.83362
C         22.31734         4.06765        -4.11770
C         21.11790         4.58940        -3.38281
C         22.67270         6.43089        -2.57649
C         21.39538         5.83108        -2.56284
C         22.95003         7.55682        -1.66639
C         21.77319         8.23364        -0.97412
C         23.01504        10.38534        -0.81881
C         21.88176         9.66910        -0.59601
C         23.00100        11.89983        -0.68595
C         22.09368        12.36218         0.49075
C         23.54476        14.33573         1.01449
C         22.11011        13.91131         0.61273
C         23.78114        15.75109         1.38086
C         21.90146        16.74379         1.79360
C         23.28829        18.76981         1.28334
C         22.04421        18.14988         1.48502
C         23.21984        20.25540         0.95719
C         22.02357        20.99107         1.50997
C         23.41836        22.92996         2.21829
C         22.05769        22.35489         1.83978
C         23.39083        24.48474         2.52867
C         22.14342        25.21143         1.95121
C         23.34830        27.44772         2.39095
C         22.18051        26.72578         2.21464
C         23.26447        28.92268         2.37711
C         21.92281        29.63196         2.30194
C         23.18886        31.82303         1.93656
C         21.96875        31.09108         1.90411
C         23.18879        33.22856         1.77377
C         21.92706        33.92094         1.63524
C         23.19564        36.01241         1.30946
C         21.90204        35.31945         1.52024
C         23.20753        37.45473         0.97537
C         21.94174        38.17317         1.39608
C         23.17223        40.35511         1.20383
C         21.95136        39.64291         1.09331
C         23.18463        41.78115         1.18361
C         21.88811        42.55078         1.25702
C         23.19093        44.61647         0.72075
C         21.96459        43.79526         0.38080
C         23.18396        46.01500         0.47077
C         21.92376        46.66453         0.11031
C         23.19261        48.86953         0.04351
C         22.04762        48.04016        -0.51304
C         23.11444        50.20451         0.20157
C         21.82546        50.98937         0.32575
C         23.11239        53.11790        -0.20586
C         21.87845        52.25437        -0.56257
C         23.15006        54.36695        -1.04990
C         21.92518        55.00525        -1.33992
C         23.19437        56.82946        -2.35793
C         21.94953        56.26228        -1.98904
C         23.19344        58.07793        -3.13624
C         21.95079        58.86623        -3.22802
C         23.25424        60.86936        -3.81705
C         22.01926        60.18854        -3.70038
C         23.48310         4.73994        -4.19016
C         24.87946         6.71310        -3.64717
C         23.70014         5.98227        -3.46268
C         25.11904         7.95045        -2.99235
C         24.19789         8.35390        -1.89681
C         25.15494        10.74465        -2.16168
C         24.22225         9.78621        -1.44213
C         25.43429        11.94215        -1.28311
C         24.39948        12.49360        -0.60813
C         25.74406        14.59364        -0.23831
C         24.63941        13.71352         0.21320
C         25.68784        16.01032        -0.06847
C         24.61283        16.62455         0.72817
C         25.59505        18.86741         0.43408
C         24.52120        18.09088         0.89628
C         25.66145        20.30496         0.62903
C         24.52481        20.99057         1.08641
C         25.71569        23.11271         1.07964
C         24.54279        22.38647         1.34280
C         25.61471        24.61692         1.05655
C         24.69969        25.23012         2.13510
C         25.93112        27.39641         1.73700
C         24.69357        26.72851         2.26455
C         26.22830        28.74333         2.10879
C         24.34041        29.76228         2.53680
C         25.64366        31.77077         1.68973
C         24.43111        31.13534         2.08140
C         25.62403        33.18354         1.49993
C         24.43343        33.89816         1.70172
C         25.69501        36.12564         1.64912
C         24.41768        35.38220         1.92093
C         25.68882        37.49925         1.48224
C         24.51058        38.22353         0.87487
C         25.64068        40.36572         1.33243
C         24.42989        39.67227         1.25643
C         25.64285        41.79852         1.29174
C         24.39067        42.48986         1.17867
C         25.62299        44.64564         1.04446
C         24.38478        43.93742         1.01660
C         25.62097        46.05941         0.84201
C         24.40366        46.73033         0.55309
C         25.65578        48.90662         0.80627
C         24.53585        48.16587         0.08858
C         25.60170        50.37229         0.86136
C         24.33122        51.03326         0.46970
C         25.63769        53.13583        -0.19699
C         24.40364        52.28966        -0.37043
C         25.63611        54.35517        -0.82838
C         24.39456        54.96333        -1.32921
C         25.68719        56.92588        -2.16325
C         24.41938        56.21577        -2.00040
C         25.71990        58.21700        -2.67753
C         24.54928        58.83516        -3.29296
C         24.46070        60.27311        -3.52272
C         26.20995         8.76159        -3.29707
C         27.51041        10.82797        -2.95647
C         26.37242        10.07519        -2.75175
C         27.73703        12.09907        -2.30708
C         26.84274        12.48726        -1.13498
C         27.92646        14.76528        -1.28656
C         26.81847        13.99566        -0.92246
C         27.89613        16.18443        -1.13511
C         26.73079        16.79747        -0.56935
C         28.03603        18.89566        -0.30060
C         26.62249        18.30281        -0.52219
C         28.04324        20.39495        -0.11213
C         26.87845        21.03999         0.39239
C         28.10669        23.18547         0.35878
C         26.88905        22.45565         0.60076
C         28.12636        24.60430         0.53829
C         26.95101        25.30108         0.91737
C         28.28266        27.45316         1.04140
C         26.98265        26.69108         1.13637
C         28.08264        28.88093         0.58055
C         27.04315        29.57162         1.36268
C         28.04478        31.77967         0.61462
C         26.83318        31.01767         1.17509
C         28.10910        33.25901         0.77388
C         26.84039        33.96644         1.13435
C         28.13699        36.04831         1.48705
C         26.94170        35.39013         1.56050
C         28.17972        37.51587         1.85881
C         26.90475        38.24724         1.51741
C         28.15390        40.37382         1.39808
C         26.90053        39.63596         1.40595
C         28.12505        41.80384         1.26670
C         26.86985        42.50949         1.25275
C         28.08841        44.64318         1.01515
C         26.85910        43.93523         1.13934
C         28.08790        46.07200         0.92301
C         26.86521        46.78275         0.87107
C         28.14784        48.92033         0.95449
C         26.87435        48.22778         0.90786
C         28.17299        50.40861         1.04607
C         26.88148        51.16115         0.92165
C         28.14066        53.11471        -0.12614
C         26.86575        52.66484         0.57309
C         28.10485        54.36992        -0.80238
C         26.90015        55.05562        -1.06393
C         26.88708        56.30749        -1.69497
C         28.84427        12.84870        -2.56973
C         30.24390        14.92736        -2.23853
C         29.17779        14.03256        -1.69984
C         30.22047        16.30561        -2.01368
C         29.04359        16.94628        -1.49240
C         30.35410        19.08892        -1.25725
C         28.99762        18.45122        -1.41908
C         30.43150        20.41560        -0.81579
C         29.23862        21.09542        -0.31880
C         30.53718        23.19572        -0.17334
C         29.29661        22.50226        -0.04343
C         30.55798        24.62121        -0.01362
C         29.35765        25.32199         0.29098
C         30.53920        27.44630        -0.03274
C         29.39013        26.73794         0.33573
C         30.55977        28.94478        -0.29585
C         29.28855        29.65860         0.11455
C         30.52947        31.73743         0.74807
C         29.34389        31.09182         0.47017
C         30.58840        33.17122         1.05609
C         29.41061        33.88832         1.06481
C         30.61917        35.96944         1.76514
C         29.42094        35.39429         1.00216
C         30.64056        37.49808         1.68056
C         29.37785        38.19750         1.20481
C         30.61439        40.37973         1.22882
C         29.37995        39.69279         1.42031
C         30.58178        41.78719         0.98864
C         29.33416        42.49929         1.04608
C         30.52079        44.64134         0.67814
C         29.31618        43.93183         0.90094
C         30.54317        46.04009         0.74450
C         29.33529        46.77093         0.85475
C         30.59192        48.90936         0.48732
C         29.33676        48.21310         0.82391
C         30.58675        50.29752         0.30660
C         29.48860        51.16971         0.83817
C         29.31390        52.40556        -0.01304
C         31.40085        17.09016        -2.22882
C         32.74823        19.11725        -1.79228
C         31.49989        18.42248        -1.77948
C         32.84413        20.42365        -1.34745
C         31.67900        21.10756        -0.88310
C         32.97642        23.19172        -0.63852
C         31.74453        22.50234        -0.54287
C         33.06463        24.59578        -0.11655
C         31.76675        25.35320        -0.17603
C         32.96402        27.54171        -0.67790
C         31.74796        26.74751        -0.24208
C         33.00125        28.94351        -0.07154
C         31.83097        29.58910         0.21063
C         33.07778        31.66333         1.09382
C         31.78447        30.94699         0.82223
C         33.11071        33.16294         1.10981
C         31.88351        33.87304         1.18046
C         33.12747        36.00277         1.29949
C         31.92044        35.29160         1.35384
C         33.24393        37.49645         1.64603
C         31.91951        38.25402         1.61356
C         33.02970        40.33271         0.78095
C         31.85711        39.67500         1.17207
C         32.98043        41.73853         0.50112
C         31.78194        42.45268         0.64018
C         33.02165        44.62073         0.24617
C         31.70978        43.88054         0.15418
C         33.05386        45.97376         0.40166
C         31.85982        46.77440         0.85231
C         31.76556        48.16297         0.29352
C         34.20965        21.07831        -1.32945
C         35.38140        23.27907        -1.11308
C         34.19009        22.56168        -1.03299
C         35.43858        24.70521        -0.90113
C         34.26122        25.36571        -0.59356
C         35.45652        27.59122        -0.86187
C         34.26774        26.82975        -0.28067
C         35.48629        28.95419        -0.20457
C         34.29802        29.56595         0.16368
C         35.64211        31.65068         0.76963
C         34.34124        30.88555         0.83105
C         35.62929        33.13150         1.05442
C         34.33571        33.87147         1.09423
C         35.57349        36.06273         0.87476
C         34.35699        35.30033         1.10691
C         35.53453        37.44183         0.63328
C         34.33186        38.20402         0.85706
C         35.41681        40.30367         0.10952
C         34.26497        39.57618         0.59759
C         35.37659        41.66009        -0.10333
C         34.19037        42.44582         0.10442
C         34.20723        43.82903         0.01124
C         36.69649        25.44292        -0.94623
C         37.96057        27.58241        -0.80091
C         36.74882        26.80973        -0.77922
C         37.96479        28.95795        -0.61321
C         36.74289        29.66207        -0.21273
C         37.97442        31.80326        -0.23583
C         36.77967        31.01245         0.09198
C         38.04486        33.23618         0.16693
C         36.90493        33.88880         0.89627
C         37.97114        36.00642        -0.01058
C         36.94683        35.41656         0.94387
C         37.79563        37.39980        -0.34565
C         36.70194        38.10765         0.06649
C         36.74367        39.60913        -0.06688
C         39.18916        29.72175        -0.72704
C         40.42146        31.88953        -0.72732
C         39.22170        31.08340        -0.56387
C         40.49081        33.20125        -0.40472
C         39.37850        33.96574         0.26843
C         39.13022        35.35009        -0.29423
O         18.63006        53.08165         0.96241
O         11.54630        32.97165        -2.22649
O         13.07074        26.83144        -0.35452
O         15.03668        27.46355         2.77120
O         32.33050        31.04480         2.19437
O         13.14966        35.25924        -2.63447
O         26.98848        31.34872        -0.26505
O         17.59775        22.97158         0.46594
O         14.51829        32.81628        -1.86051
O         20.12142        48.52058        -1.92683
O         19.61518        50.21714         1.09519
O         23.17194        36.46651        -0.10209
O         37.67430        32.91656        -1.20872
O         27.29729        33.91102        -0.27976
O         15.71513        23.71717         3.42897
O         25.49427        29.27815         3.15944
O         11.06117        24.97818         2.22444
O         17.89766        40.93338         1.83045
O         20.05091        27.38649         3.32434
O         24.67523        51.04644         1.87246
O         13.25957        37.77297        -2.76455
O         22.64903         7.30035        -0.25740
O         23.78900        22.26053         3.41797
O         27.48555        50.91322         2.24334
O         24.50192        13.45789         1.66454
O         24.89263         8.75635        -0.67095
O         12.54506        29.76592        -1.20527
O         31.18139        38.09126         2.89733
O         22.99938        16.17552         2.45288
O         28.21405        29.23839        -0.81499
O         13.56347        22.52931         2.99503
O         25.25376        25.83917         3.32043
O         23.95443        58.01344        -4.36572
O         36.54415        33.36919         2.20635
O         35.24491        30.90527         1.97628
O         28.55556        18.30849         0.91996
H         28.03817        18.66033         1.67488
O         18.63381        15.97805         2.95918
H         18.13607        15.22160         3.35728
O         32.08248        46.97394         2.30537
H         31.38423        47.58304         2.62940
O         21.95302        51.75787        -1.91979
H         22.00976        52.52571        -2.52661
O         25.04022        48.09272        -1.28927
H         24.26262        47.89288        -1.86711
O         33.72346        37.52920         3.02238
H         32.92533        37.58849         3.59722
O         17.94741        14.60213        -0.40698
H         18.47446        15.32851        -0.82615
O         34.39311        26.93194         1.16403
H         33.88064        26.18997         1.57045
O         18.72121        28.41561        -0.52757
H         18.56993        29.22968        -1.05544
O         15.72309        46.34836         1.47716
H         16.44508        45.83445         1.92016
O         16.52552        40.33629        -2.09986
H         16.48190        39.44009        -2.49962
O         20.55187         3.56269        -2.55034
H         21.19386         3.36207        -1.83873
O         22.37264        12.33942        -1.93347
H         22.96875        12.03669        -2.67151
O         23.03124        53.58861         1.14695
H         22.72088        52.84598         1.72310
O         13.13443        32.23895         1.45965
H         13.03059        31.48221         2.08321
O         34.90738        20.81932        -2.55648
H         34.42677        21.26832        -3.28169
O         24.50158        51.78317        -1.73253
H         24.61856        52.54710        -2.33599
O         26.82365        53.38287         1.83398
H         26.10224        52.98530         2.36948
O         35.28497        27.80579        -2.28681
H         36.10094        28.23394        -2.61980
O         17.16716        25.74756         3.79278
H         16.94609        24.94327         4.31361
O         17.98842        44.93050         2.03947
H         18.83132        45.30179         2.37798
O          9.88121        34.02382         0.89428
H          9.03663        34.43393         1.17759
O         24.18342        35.54137         3.36769
H         24.87404        35.03492         3.84462
O         21.74767        43.02219         2.63041
H         21.69168        42.23875         3.21643
O          8.09912        28.98626         1.79339
H          8.76562        28.43763         2.26073
O         26.10070        18.71199        -1.83865
H         25.52831        19.50006        -1.71218
O         31.44235        43.76193        -1.29402
H         32.19821        43.27600        -1.68807
O         22.46972        47.73663        -1.88512
H         21.66630        47.82207        -2.45587
O         22.99536        20.27710        -0.51841
H         22.09185        19.92618        -0.67905
O         21.40960        29.64365         3.66520
H         22.12448        29.93410         4.26852
O         19.65238        16.60365        -0.52894
H         20.44670        16.06609        -0.76907
O         37.47816        35.74612         2.27081
H         36.96770        35.19666         2.91214
O         29.57646        35.64974        -0.41594
H         28.79407        35.24740        -0.86066
O         24.86149        24.94705        -0.18218
H         25.30853        24.50613        -0.93646
O         17.39174        13.60701         3.06440
H         16.64568        13.09272         3.43806
O         20.02609        38.12085        -1.21470
H         20.37744        37.23182        -1.43716
O         33.30006        24.42464         1.36152
H         34.10251        23.86598         1.45759
O         21.73772        51.37835         1.70990
H         20.81299        51.18924         2.01155
O         24.39257        11.22604        -3.33456
H         25.00814        11.74439        -3.89618
O         21.97949        14.57580        -0.69639
H         21.90633        13.88582        -1.40727
O         22.62013        11.84081         1.72285
H         22.17483        10.98128         1.92023
O         18.36004        50.48808        -2.31594
H         19.07825        49.87066        -2.59803
O         20.75025        24.48883         3.89516
H         21.66886        24.56150         4.27040
O         22.12082        25.04218         0.51488
H         23.03175        25.18876         0.15549
O         20.87163         9.69682         1.53795
H         21.08681         8.74191         1.45403
O         28.76314        27.61732         2.42093
H         28.81569        26.72886         2.83336
O         21.43638        28.69954         0.13582
H         20.70341        28.34146        -0.42037
O         28.36944        37.62271         3.29883
H         27.59602        37.20998         3.73601
O         39.73650        34.10908         1.66471
H         39.08859        34.73544         2.07812
O         13.03327        29.28940         2.38850
H         13.71516        28.85849         2.96397
O         16.83036        46.23230        -2.01753
H         17.55380        46.67323        -2.51050
O         29.73593        13.45263        -0.43782
H         29.94103        14.20482         0.15911
O         24.86891        38.27852        -0.54727
H         24.54762        37.43384        -0.94480
O         21.99416        38.10400         2.87177
H         21.14333        38.44859         3.21732
O         29.30209        38.08277        -0.23319
H         28.43021        38.42714        -0.52155
O         37.35077        39.99569        -1.30979
H         36.78155        39.67852        -2.04039
O          9.66895        39.64129        -3.34180
H         10.43756        39.23399        -3.79344
O         28.54845        18.92659        -2.71926
H         27.57555        18.75058        -2.78248
O         29.94770        51.63585         2.14443
H         29.13097        51.78566         2.68018
O         32.85858        27.61551        -2.11088
H         32.05484        28.15673        -2.31239
O         23.31866        24.58729         3.95687
H         23.65376        23.69467         4.27894
O         27.42298        11.88242         0.04530
H         28.34304        12.23844         0.11897
O         22.15189        43.34543        -0.98947
H         22.27526        44.13562        -1.55582
O         30.61208        29.09219        -1.75809
H         29.68539        28.98594        -2.07902
O         30.39695        35.61000         3.14927
H         30.70517        36.36657         3.69937
H          5.14214        31.06248        -1.18391
H          5.18636        33.50236        -1.54484
H          7.49848        26.81006        -0.13099
H          6.25722        29.01825        -0.41231
H          6.44316        35.64724        -1.53995
H          7.68912        37.78107        -1.71703
H         10.17813        22.50958         0.06014
H          8.88733        24.68514        -0.27068
H          8.92242        39.88317        -1.43705
H         10.09711        42.08307        -1.47875
H         12.48186        18.26593         0.79839
H         11.30107        20.39777         0.55658
H         11.23514        44.21409        -1.14670
H         12.38218        46.37485        -1.02785
H         14.92754        13.99358         1.40668
H         13.70332        16.10937         1.02318
H         13.51542        48.56340        -0.83902
H         14.66678        50.72065        -0.52511
H         17.23648        10.04184        -0.28463
H         16.16460        11.86002         0.91821
H         15.84737        52.88431        -0.43687
H         17.26635        54.94802        -1.46133
H         19.31836         5.99220        -2.01442
H         18.29602         8.04512        -1.18017
H         18.54926        56.91797        -2.08739
H         19.79960        58.81297        -2.96639
H         22.19896         3.10785        -4.64224
H         20.32609         4.83431        -4.14724
H         23.23352        61.94355        -4.05132
H         21.08556        60.75024        -3.84653
H         24.32222         4.33878        -4.77849
H         25.61502         6.35623        -4.38359
H         26.65135        58.79983        -2.61426
H         25.37169        60.88122        -3.42510
H         26.97609         8.38595        -3.99308
H         28.33745        10.40052        -3.54586
H         29.05173        54.80010        -1.16357
H         27.84191        56.82717        -1.86667
H         29.54420        12.55588        -3.36737
H         31.16671        14.46015        -2.61441
H         31.51767        50.79445        -0.00743
H         30.22672        52.82998        -0.46165
H         32.29381        16.59459        -2.63850
H         33.64645        18.60587        -2.16795
H         34.02332        46.49760         0.38252
H         32.69017        48.68956         0.01026
H         34.81470        20.57561        -0.52211
H         36.29970        22.74656        -1.40152
H         36.29336        42.17180        -0.43286
H         35.16274        44.34558        -0.16878
H         37.62832        24.86465        -1.04763
H         38.91652        27.06526        -0.98086
H         38.61477        37.92531        -0.85942
H         37.43095        39.99198         0.73976
H         40.11579        29.18053        -0.97286
H         41.30989        31.38841        -1.14263
H         41.43857        33.74104        -0.55411
H         39.91618        35.85442        -0.87825
