         272
 CSIRO Nanostructure Databank - Neutral Graphene Oxide Data Set
C        -11.43740         0.71707        -0.72045
C        -10.29673         1.46753        -1.31108
C         -9.07071         0.69238        -1.69265
C         -7.73962         1.39853        -1.64867
C         -6.50558         0.69059        -2.14108
C         -5.22185         1.51385        -2.24120
C         -3.90542         0.75458        -2.28062
C         -2.61352         1.55748        -2.33290
C         -1.34943         0.92782        -1.69745
C         -0.03435         1.56394        -2.20262
C          1.32291         0.77504        -2.23945
C          2.44425         1.44820        -1.44321
C          3.72186         0.69394        -1.29088
C          4.98277         1.43025        -0.99052
C          6.15592         0.56349        -0.64757
C          7.29826         1.14933         0.11584
C          8.61594         0.41971         0.18873
C          9.84300         1.09837         0.72575
C         11.15089         0.39177         0.66209
C        -10.14864         2.87423        -0.86124
C         -8.97368         3.53864        -0.89615
C         -7.71758         2.85981        -1.35027
C         -6.51956         3.70917        -1.68082
C         -5.22555         3.00418        -2.05395
C         -3.93612         3.82598        -2.05115
C         -2.63472         3.06809        -2.25984
C         -1.34267         3.84867        -2.00094
C         -0.02677         3.06346        -2.04802
C          1.19244         3.64798        -1.36816
C          2.52444         2.95161        -1.52193
C          3.82594         3.63825        -1.18580
C          5.00568         2.78290        -0.80938
C          6.25133         3.44849        -0.32521
C          7.26168         2.63896         0.52871
C          8.65320         3.28355         0.59007
C          9.78384         2.57119         0.80292
C         -8.75101         4.71468         0.02131
C         -7.81845         5.80728        -0.65604
C         -6.50687         5.11936        -1.15965
C         -5.16287         5.64808        -0.71156
C         -3.93916         5.23795        -1.51300
C         -2.65187         6.02177        -1.23567
C         -1.35092         5.29179        -1.56231
C         -0.06724         5.87110        -1.02628
C          1.13448         5.00135        -0.74586
C          2.43502         5.73674        -0.48327
C          3.78218         5.11238        -0.78267
C          5.06675         5.85096        -0.25728
C          6.26911         4.92292        -0.04328
C          7.31994         5.34719         0.92747
C          8.70484         4.80059         0.68614
C         -7.58386         6.97687         0.21832
C         -6.42606         7.08322         1.14290
C         -5.11881         6.72037         0.33834
C         -3.99018         7.71796         0.28198
C         -2.70777         7.32302        -0.44508
C         -1.61175         8.45061        -0.11216
C         -0.02420         7.28802        -0.56376
C          1.12084         7.25085         1.22972
C          2.34406         6.98079         0.38895
C          3.58616         7.54735         1.03417
C          4.72593         6.56785         1.04822
C          5.65263         6.59515         2.22220
C          7.02433         6.09319         2.01059
C         -6.35470         8.38678         1.89992
C         -5.21321         9.04092         2.14232
C         -3.98133         8.80174         1.34869
C         -2.69833         9.19907         1.93149
C         -1.48438         8.87002         1.35407
C         -0.27728         9.21987         2.01616
C          1.00522         8.63455         1.80919
C          2.15004         9.18846         2.33977
C          3.54621         8.67836         2.07235
C          4.34547         8.39391         3.32428
C          5.37153         7.53332         3.33956
C        -11.37713        -0.58826        -0.43022
C        -10.21634        -1.50167        -0.74219
C         -9.06412        -0.80903        -1.51118
C         -7.75154        -1.53780        -1.53469
C         -6.46144        -0.78883        -1.85271
C         -5.16170        -1.15475        -1.12712
C         -3.89950        -0.69166        -1.87551
C         -2.57372        -1.38330        -1.61845
C         -1.28791        -0.60718        -1.65100
C         -0.00070        -1.19349        -1.03963
C          1.21074        -0.72103        -1.85022
C          2.50002        -1.48372        -1.77895
C          3.79424        -0.71004        -1.84758
C          5.08916        -1.46466        -1.83789
C          6.34068        -0.73868        -1.40171
C          7.63293        -1.48741        -1.28108
C          8.82405        -0.81590        -0.63105
C         10.09650        -1.58053        -0.38832
C         11.21557        -0.91166         0.33306
C         -9.66607        -2.16038         0.52266
C         -8.52575        -2.89689         0.47223
C         -7.74276        -2.92298        -0.83520
C         -6.29885        -3.50852        -0.72777
C         -5.11408        -2.56598        -0.50066
C         -3.80701        -3.29306        -0.30226
C         -2.60163        -2.79501        -1.05949
C         -1.29667        -3.50298        -0.92141
C          0.00076        -2.73536        -0.89830
C          1.26961        -3.54758        -0.94363
C          2.58823        -2.86363        -1.19086
C          3.83977        -3.66392        -1.41102
C          5.11358        -2.98518        -1.87583
C          6.41758        -3.74075        -1.73472
C          7.78348        -2.99625        -1.61648
C          8.77106        -3.67464        -0.66987
C          9.91740        -3.04032        -0.29266
C         -8.15073        -3.83286         1.51753
C         -7.20209        -4.79929         1.36703
C         -6.30202        -4.77261         0.18146
C         -5.03266        -5.55944         0.31248
C         -3.75913        -4.70816         0.37428
C         -2.45400        -5.49054         0.25082
C         -1.20977        -4.82732        -0.22092
C         -0.07708        -5.70515        -0.67597
C          1.19226        -5.04286        -1.13850
C          2.44178        -5.86290        -1.23725
C          3.77655        -5.16848        -1.44272
C          5.05090        -5.92835        -1.26767
C          6.42909        -5.25931        -1.44247
C          7.40243        -5.71504        -0.39815
C          8.52464        -5.00484        -0.14052
C         -6.77148        -5.53562         2.64152
C         -5.89011        -6.80150         2.47707
C         -4.93642        -6.72092         1.28264
C         -3.64970        -7.48639         1.28169
C         -2.55160        -7.04247         0.28736
C         -1.16382        -7.54918         0.74884
C         -0.06341        -7.11917        -0.20518
C          1.16255        -7.98258        -0.37700
C          2.50028        -7.38905        -0.93803
C          3.62323        -7.68047         0.08436
C          5.01940        -7.13962        -0.32810
C          6.27820        -8.04980        -0.49750
C          7.00734        -6.95116         0.34817
C         -5.07985        -7.06190         3.74288
C         -3.90455        -7.70654         3.75981
C         -3.25016        -8.30242         2.52222
C         -1.71599        -8.38188         2.60872
C         -1.03741        -8.91598         1.36527
C          0.11395        -9.62543         1.31782
C          1.19576        -9.30097         0.34425
C          2.53801        -9.88615         0.59280
C          3.67827        -9.16949         0.43695
C          4.96328        -9.81791         0.68285
C          6.14905        -9.32519         0.28360
O          2.74635         0.82278        -0.17474
O          3.39270         3.43420        -2.57378
O         -5.97760        -5.90083        -0.71713
O          4.39550        -5.89044        -2.55541
O          3.07932         8.07622        -0.21678
O         -1.24050         4.95050        -2.96626
O          3.11369         5.95444        -1.75415
O          1.63340        -1.55093        -2.95851
O         -4.77563         5.34912         0.68524
O         -0.56023        -6.75567        -1.53965
O          4.56211         5.58478         2.11759
O         -1.72630        -1.30409        -2.81732
O          3.51067        -3.08930        -0.08684
O         -4.00735        -0.32241        -3.26343
O         -1.48289         9.33431        -0.95277
O         -8.44043        -3.85039        -1.63424
O          1.62925        -5.53733        -2.42421
O         -1.47898        -4.88300         1.19230
O          0.70162        -3.12128         0.33390
O         -2.50851         2.34490        -3.52624
O         -5.36607         2.40788        -3.38383
O          0.01265         2.44455        -3.35378
O         -4.82138        -8.01613         0.58701
O          8.95809         0.30589         1.60766
O          5.78309        -3.50964        -3.03471
O         -9.97786         1.19323        -2.71591
O         -4.30469         9.07974        -0.07347
O         -7.37775         1.87895        -0.27394
O          6.90795         2.77556         1.86886
O         -4.37579        -2.42485         0.73960
O          4.55074        -0.86769        -3.06629
O          6.83106         4.38999        -1.29179
O          7.30714        -0.70025        -2.48775
O          8.39921        -3.04470        -2.91937
O         -8.64280        -1.53491        -2.68787
O          0.34990         7.12092        -1.77215
O         -6.68066         4.85118        -2.57281
O         -2.83644         7.31095        -1.88752
O         -2.09943        -3.68179        -2.11655
O         -4.10445         4.99654        -2.91778
O          3.20847        -6.95857         1.26364
O         -6.51516        -0.28679        -3.20598
O          0.80469        -9.22326        -1.06511
O          6.26270         0.36317         0.79900
O         -1.14667        -7.06825         2.19852
O          9.88327        -0.83132        -1.64119
O          0.86460         3.83551         0.06889
O          0.50930         6.30988         1.74959
O          5.67258        -6.58821         0.90612
H          3.99740        -6.85530         1.84334
O         -8.58466         6.26600        -1.77767
H         -8.23474         5.82274        -2.58797
O          5.44567         6.84658        -1.20478
H          5.49543         6.43414        -2.09237
O          0.12736        -0.64194         0.28490
H          0.67506        -1.26656         0.82178
O          2.83610        -8.05923        -2.14110
H          2.15619        -7.84512        -2.81484
O          8.31097        -5.74723        -2.88253
H          8.43016        -4.80376        -3.19925
O          6.75525        -8.36602        -1.77385
H          6.81311        -7.55420        -2.34188
O          1.81024         0.83319        -3.57728
H          1.16851         0.41057        -4.18546
O         -8.15006         4.18970         1.20371
H         -7.81419         3.27878         1.03267
O         -6.08184        -4.57440         3.45390
H         -5.26275        -4.29881         2.97531
O         -3.71443        -9.65627         2.37095
H         -4.60051        -9.61906         1.94825
O         -6.55066         6.12031         2.21523
H         -7.04275         5.31885         1.90076
O          4.22898         9.80143         1.44330
H          3.90799         9.85233         0.51455
O         -6.79332        -7.90594         2.27631
H         -6.41549        -8.47840         1.57051
O         -2.89133        -7.50494        -1.00755
H         -3.82129        -7.83397        -0.98512
O         -6.00600        -3.91000        -2.07681
H         -6.86137        -4.26536        -2.43740
O        -10.75275        -2.55595        -1.55170
H         -9.98167        -3.13626        -1.82737
O         -5.23199        -0.23571         0.01436
H         -4.77691        -0.66269         0.77976
O         -3.82386        -4.43398         1.81569
H         -2.91308        -4.18695         2.10944
O          6.88446        -5.87776        -2.75776
H          7.93434        -2.38225        -3.48232
O         -1.48943         1.36876        -0.31566
H         -0.82088         0.89714         0.24288
O          9.26728         5.33758        -0.51505
H          8.63269         5.15368        -1.24540
H         12.16263        -1.46489         0.42101
H         12.03238         0.91321         1.06406
H         10.73683         3.11081         0.92421
H          9.37847         5.09976         1.52779
H          7.80430         6.36464         2.73680
H          5.99094         7.43038         4.24366
H          4.15028         9.03656         4.19526
H          2.08345        10.16070         2.85511
H         -0.34573        10.00832         2.78549
H         -2.71874         9.58370         2.96375
H         -5.20063         9.89909         2.83117
H         -7.26604         8.65828         2.45270
H         -8.26539         7.83138         0.08730
H         -9.71699         5.20942         0.28927
H        -11.01525         3.34056        -0.36612
H        -12.34359         1.29421        -0.47874
H        -12.25588        -1.08049         0.01349
H        -10.30606        -2.20432         1.41852
H         -8.70779        -3.77511         2.46573
H         -7.68671        -5.83732         3.20724
H         -5.51818        -6.71651         4.69167
H         -3.40548        -7.89459         4.72419
H         -1.34069        -8.72549         3.59980
H          0.32173       -10.39395         2.07835
H          2.59548       -10.94374         0.89651
H          4.92725       -10.79749         1.18554
H          7.07209        -9.89658         0.46292
H          7.73035        -7.25195         1.13992
H          9.25609        -5.39107         0.58655
H         10.63257        -3.58241         0.34584
