         630
 CSIRO Nanostructure Databank - Neutral Graphene Oxide Data Set
C         22.93400        27.42439        -0.41567
C         22.96032        28.79812        -0.23381
C         23.03155        31.73105        -0.03915
C         23.04164        33.11041         0.16673
C         23.13044        36.09032         0.36906
C         23.11800        37.39583         0.70511
C         23.05568        40.21274         1.55612
C         22.97646        41.56796         1.47209
C         23.02372        44.46555         0.70973
C         22.99927        45.81282         0.50082
C         25.27852        24.55882        -0.93717
C         24.14679        25.25190        -0.68102
C         25.36112        27.37895        -0.29570
C         24.13777        26.69411        -0.47887
C         25.40752        28.76649        -0.03481
C         24.17673        29.50836        -0.04975
C         25.43285        31.59887         0.61102
C         24.18348        30.93968         0.09055
C         25.47506        33.09912         0.45331
C         24.24830        33.82533         0.42402
C         25.50297        35.85706         0.96740
C         24.28360        35.23980         0.61560
C         25.50893        37.24976         1.46258
C         24.17360        37.97384         1.61719
C         25.51548        40.15816         1.46899
C         24.29806        39.48667         1.52784
C         25.52747        41.62975         1.59412
C         24.18331        42.39105         1.58538
C         25.45535        44.49272         1.13329
C         24.20539        43.80029         1.17512
C         25.45985        45.85374         0.78369
C         24.18609        46.64676         0.89892
C         25.34677        48.62047        -0.14019
C         24.22299        48.00461         0.24934
C         27.88897        23.09666        -0.92139
C         27.86866        24.50004        -0.96008
C         26.58140        25.28795        -1.17161
C         27.90150        27.34337        -0.39324
C         26.60397        26.59111        -0.38960
C         27.87410        28.80054        -0.25132
C         26.69351        29.45190         0.04954
C         27.90064        31.58194         0.28985
C         26.72004        30.90407         0.24512
C         27.94377        33.06709         0.06086
C         26.69202        33.78090         0.49633
C         27.99475        35.88176         0.81794
C         26.72882        35.17025         0.78713
C         28.02707        37.28052         0.96093
C         26.81223        38.00718         1.38042
C         27.99188        40.18269         1.18494
C         26.79077        39.48685         1.32130
C         28.00896        41.64484         1.17978
C         26.75603        42.38304         1.27461
C         27.98219        44.56625         1.42060
C         26.71408        43.76421         1.22320
C         27.98301        45.92514         0.75301
C         26.69929        46.49595         0.32629
C         27.93341        48.70447        -0.04362
C         26.66904        47.93800        -0.13942
C         27.94551        50.10664        -0.21660
C         30.33274        23.07620        -0.90009
C         29.09261        22.40384        -0.88164
C         30.33722        24.49908        -0.94327
C         29.09844        25.19201        -0.96640
C         30.40149        27.41655        -0.94141
C         29.09145        26.67521        -0.99939
C         30.42350        28.81185        -0.49320
C         29.13462        29.59910        -0.55387
C         30.46352        31.60224         0.22296
C         29.19277        30.79641         0.38108
C         30.42782        33.00053         0.43908
C         29.22300        33.74235         0.48431
C         30.46881        35.87860         0.62448
C         29.22222        35.14720         0.66369
C         30.47039        37.32706         0.66190
C         29.24940        38.01959         0.85101
C         30.46400        40.14564         0.90661
C         29.24563        39.45441         0.99158
C         30.51340        41.61626         1.21966
C         29.20121        42.34296         1.06862
C         30.40012        44.49482         0.88373
C         29.23798        43.79185         1.08180
C         30.42255        45.99145         1.12445
C         29.14440        46.63361         0.62157
C         30.37686        48.77057         0.22364
C         29.14912        48.03531         0.22511
C         30.37550        50.17753         0.00629
C         29.12737        50.82307        -0.18737
C         32.82203        20.24555        -0.73970
C         31.62337        20.93727        -0.81971
C         32.82329        23.05871        -0.83657
C         31.58983        22.34648        -0.85550
C         32.82795        24.48995        -0.85957
C         31.59859        25.22005        -0.91271
C         32.86261        27.33564        -0.70766
C         31.63791        26.62930        -0.86421
C         32.88037        28.74990        -0.48716
C         31.63554        29.46530        -0.29458
C         32.94984        31.52696         0.11343
C         31.67090        30.88468         0.02910
C         32.99290        32.95234         0.51506
C         31.69854        33.72209         0.63513
C         32.90168        35.91198         0.19369
C         31.66742        35.18566         0.49896
C         32.94304        37.36909         0.39774
C         31.70861        38.04929         0.58531
C         32.94518        40.19251         0.54699
C         31.70043        39.47322         0.68576
C         32.95423        41.61508         0.50559
C         31.65107        42.30433         0.50462
C         32.91161        44.51692         0.42154
C         31.62695        43.80035         0.44163
C         32.85529        45.93489         0.46435
C         31.66724        46.66568         0.60961
C         32.83265        48.82965         0.32107
C         31.63524        48.08349         0.38589
C         32.85924        50.23591         0.13836
C         31.62074        50.92162        -0.02721
C         32.85126        53.00927        -0.32683
C         31.65608        52.32134        -0.24659
C         35.35865        18.81349        -0.41825
C         35.31736        20.20819        -0.59093
C         34.05915        20.92257        -0.70174
C         35.30332        23.05847        -0.77391
C         34.06204        22.34518        -0.76838
C         35.30583        24.47216        -0.84131
C         34.06828        25.19183        -0.84534
C         35.32879        27.32293        -0.84513
C         34.08865        26.61282        -0.78226
C         35.34632        28.73366        -0.67215
C         34.12598        29.43786        -0.43466
C         35.47745        31.51503         0.13535
C         34.14197        30.84458        -0.14014
C         35.39833        33.01681        -0.02790
C         34.24598        33.68569         0.21932
C         35.44620        35.92620         0.27716
C         34.18732        35.16173         0.04943
C         35.42703        37.38724         0.15868
C         34.17007        38.06833         0.29134
C         35.40161        40.21312         0.20318
C         34.16935        39.49818         0.34785
C         35.39167        41.63840         0.28857
C         34.14582        42.34344         0.37818
C         35.39053        44.47755         0.36193
C         34.13788        43.79825         0.35834
C         35.41180        45.94180         0.21743
C         34.10452        46.67483         0.23024
C         35.39861        48.85994         0.52863
C         34.09506        48.12260         0.57134
C         35.37313        50.28760         0.17701
C         34.11700        50.95069         0.05632
C         35.35057        53.06916        -0.31857
C         34.10501        52.35453        -0.19629
C         35.37005        54.48276        -0.46815
C         37.78195        18.78936        -0.10523
C         36.55844        18.13645        -0.12442
C         37.84614        20.18492        -0.67987
C         36.54311        20.94415        -0.60295
C         37.79539        23.08276        -0.73061
C         36.54762        22.34062        -0.71081
C         37.79577        24.47103        -0.90776
C         36.54126        25.19274        -0.96278
C         37.75585        27.30391        -1.57091
C         36.53309        26.58870        -1.06256
C         37.74948        28.77556        -1.22124
C         36.61290        29.44679        -0.78297
C         37.82079        31.59530        -0.85218
C         36.65582        30.87628        -0.58085
C         37.83409        33.07541        -0.86525
C         36.59745        33.78568        -0.45077
C         37.92262        35.96489        -0.36886
C         36.73210        35.19274         0.02295
C         37.86783        37.35577        -0.32584
C         36.63808        38.06999        -0.04918
C         37.84762        40.24732        -0.13466
C         36.63025        39.51689        -0.03070
C         37.83317        41.64012         0.11697
C         36.62774        42.34532         0.30813
C         37.84715        44.52396         0.52329
C         36.62402        43.78992         0.42519
C         37.85292        45.93257         0.55856
C         36.66232        46.68775         0.46324
C         37.85436        48.85008         0.33087
C         36.66154        48.10304         0.41278
C         37.85075        50.24242         0.04704
C         36.59856        50.95349        -0.04794
C         37.82733        53.07203        -0.45060
C         36.59745        52.37159        -0.29022
C         37.81141        54.49727        -0.57311
C         36.55395        55.17032        -0.56854
C         40.14420        16.13052         1.17924
C         39.02307        16.75269         0.69424
C         40.14309        18.93272         0.57648
C         38.99384        18.15777         0.36550
C         40.19004        20.34543         0.24814
C         39.02821        20.99852        -0.22556
C         40.25334        23.12719        -0.35869
C         39.03364        22.38963        -0.45368
C         40.26711        24.52793        -0.65515
C         39.04052        25.21030        -0.92179
C         40.27732        27.29857        -1.21627
C         39.05289        26.60178        -1.18746
C         40.31052        28.73581        -1.54387
C         38.96466        29.52242        -1.52097
C         40.26208        31.65401        -1.33627
C         39.03293        30.95282        -1.24114
C         40.30033        33.10289        -1.16012
C         39.11550        33.81919        -0.89202
C         40.34084        35.96014        -0.92886
C         39.11369        35.23457        -0.74942
C         40.34932        37.39757        -0.83092
C         39.03844        38.14126        -0.87866
C         40.32010        40.24226        -0.38620
C         39.11107        39.57108        -0.39115
C         40.33105        41.75959        -0.40041
C         39.12474        42.33339         0.30621
C         40.41533        44.54409         0.42687
C         39.13727        43.80376         0.59942
C         40.39318        45.92647         0.49015
C         39.12804        46.64554         0.74129
C         40.37470        48.84179         0.25795
C         39.12218        48.16105         0.59979
C         40.32247        50.20374        -0.12152
C         39.09728        50.92469        -0.17307
C         40.28896        53.05186        -0.62260
C         39.09520        52.35289        -0.44085
C         40.29040        54.50398        -1.02633
C         39.02827        55.23883        -0.66406
C         40.26641        57.33811        -0.60925
C         39.06863        56.64644        -0.58260
C         42.52830        16.27379         1.86273
C         41.33448        16.86953         1.46591
C         42.61779        19.07024         1.31182
C         41.28131        18.32205         1.27901
C         42.66688        20.33890         0.54319
C         41.40548        21.07649         0.32445
C         42.71999        23.16387        -0.04897
C         41.46300        22.44382        -0.02738
C         42.71929        24.52145        -0.41211
C         41.50995        25.23130        -0.68769
C         42.73289        27.40256        -0.97143
C         41.51337        26.64053        -0.96376
C         42.74783        28.79966        -1.09402
C         41.52394        29.52144        -1.33348
C         42.77903        31.64631        -1.72669
C         41.48720        30.92283        -1.43165
C         42.76919        33.12404        -1.42520
C         41.54225        33.82356        -1.25312
C         42.76488        36.01749        -1.55769
C         41.53337        35.24594        -1.16181
C         42.80711        37.43484        -1.02542
C         41.56077        38.11521        -0.82944
C         42.79535        40.22284        -0.47441
C         41.57321        39.54084        -0.58263
C         42.82808        41.62378         0.00411
C         41.61703        42.42201         0.05488
C         42.92317        44.54056         0.35010
C         41.65882        43.79853         0.31612
C         42.83577        45.99001         0.55404
C         41.61012        46.68942         0.47090
C         42.83250        48.86683         0.28488
C         41.59344        48.12759         0.35528
C         42.85281        50.22909        -0.06159
C         41.59452        50.85593        -0.48315
C         42.84444        53.10982        -0.53979
C         41.57802        52.36220        -0.74334
C         42.79751        54.55470        -0.56785
C         41.56133        55.23969        -0.68172
C         42.73215        57.38199        -0.47393
C         41.52229        56.64934        -0.60843
C         43.75202        16.98207         1.90857
C         45.11887        19.05084         1.48343
C         43.85929        18.31985         1.54166
C         45.16628        20.41195         1.09622
C         43.98632        21.05939         0.48802
C         45.16241        23.23142         0.43472
C         43.96900        22.51793         0.28244
C         45.22005        24.61739         0.04344
C         44.01762        25.19615        -0.58435
C         45.24009        27.44270        -0.55980
C         44.01977        26.68952        -0.87221
C         45.22162        28.84889        -0.70570
C         43.99421        29.53991        -1.00378
C         45.22581        31.65254        -1.12866
C         44.00076        30.92821        -1.19147
C         45.22282        33.06400        -1.34509
C         44.01391        33.81051        -1.41687
C         45.23619        35.96606        -1.27679
C         44.04720        35.25427        -1.35625
C         45.26808        37.40447        -1.13437
C         44.01835        38.13057        -0.97510
C         45.24991        40.28834        -0.86539
C         44.04055        39.55536        -0.71623
C         45.32350        41.70639        -0.76172
C         44.17748        42.42706        -0.14672
C         45.27615        44.61483        -0.62339
C         44.10498        43.88619        -0.07003
C         45.59949        45.92110        -0.07026
C         43.96102        46.81662         0.86403
C         45.36862        48.90879         0.67626
C         44.03988        48.18062         0.61311
C         45.27060        50.36907         0.32599
C         44.08613        50.98600        -0.04623
C         45.27061        53.19559        -0.21251
C         44.03921        52.43807        -0.28872
C         45.26603        54.61201        -0.36964
C         44.00471        55.30781        -0.45656
C         43.94153        56.72546        -0.42622
C         47.50705        19.14571         1.97326
C         46.32544        18.43989         1.91974
C         47.56610        20.51737         1.61204
C         46.37179        21.15745         1.17689
C         47.58510        23.28412         0.93027
C         46.38986        22.56446         0.84870
C         47.56968        24.79283         0.89060
C         46.38374        25.36567         0.15670
C         47.66247        27.48128        -0.12321
C         46.42423        26.75912        -0.19176
C         47.67970        28.86059        -0.39466
C         46.45392        29.56601        -0.64780
C         47.70682        31.67356        -0.89796
C         46.45321        30.96005        -0.89897
C         47.73310        33.04777        -1.10285
C         46.50740        33.75286        -1.47535
C         47.77970        35.99445        -1.18123
C         46.51964        35.27697        -1.46867
C         47.75784        37.40897        -1.18348
C         46.48621        38.08620        -1.17373
C         47.78806        40.28568        -1.34232
C         46.45946        39.55570        -1.29774
C         47.78826        41.73932        -1.12601
C         46.52430        42.40019        -1.06962
C         47.81849        44.56403        -1.27601
C         46.51869        43.85977        -1.22714
C         47.92137        45.95002        -1.50528
C         46.24188        46.93969        -0.70639
C         47.65286        48.91252        -0.54792
C         46.48512        48.26998        -0.21175
C         47.66209        50.43019        -0.57201
C         46.58841        51.08608         0.35761
C         47.72073        53.23190        -0.08954
C         46.50432        52.53906        -0.02176
C         47.70623        54.62696        -0.30938
C         46.50294        55.30132        -0.41583
C         50.02461        20.63725         2.00950
C         48.80286        21.25499         1.62921
C         50.06242        23.33581         1.17383
C         48.81478        22.62876         1.25779
C         50.10205        24.70638         0.70716
C         48.88605        25.41936         0.48915
C         50.15924        27.45085        -0.06846
C         48.90848        26.77130         0.11144
C         50.19045        28.83908        -0.38570
C         48.93761        29.56660        -0.48733
C         50.20197        31.60533        -1.07590
C         48.93575        30.93183        -0.74439
C         50.22548        33.10634        -1.19788
C         48.97389        33.81328        -0.73827
C         50.22171        35.96256        -0.96777
C         48.98497        35.28477        -1.05424
C         50.23079        37.39109        -0.97869
C         49.00284        38.11676        -1.09597
C         50.24149        40.24370        -0.94338
C         49.03690        39.53898        -1.11603
C         50.26277        41.69200        -0.96036
C         49.01470        42.42123        -1.03552
C         50.23631        44.60215        -0.93616
C         49.02855        43.87050        -1.02441
C         50.25687        46.02705        -0.92020
C         49.03511        46.72268        -1.12380
C         50.22047        48.94362        -0.65588
C         48.91430        48.21596        -1.00429
C         50.17321        50.34662        -0.15513
C         48.98142        51.08282        -0.22077
C         50.17143        53.10919         0.39973
C         48.97199        52.47362         0.04210
C         51.21294        21.32447         1.95912
C         52.53702        23.33932         1.32700
C         51.26832        22.67192         1.50343
C         52.57901        24.63699         0.73968
C         51.34576        25.33708         0.46287
C         52.62472        27.35739        -0.18716
C         51.38728        26.71940         0.05711
C         52.67180        28.75818        -0.46626
C         51.43478        29.50430        -0.56084
C         52.66909        31.62647        -0.98457
C         51.47479        30.90775        -0.85783
C         52.71328        33.07478        -1.02550
C         51.49969        33.81862        -1.02629
C         52.69764        35.94050        -0.79102
C         51.47066        35.22723        -0.90181
C         52.69215        37.36753        -0.71292
C         51.46111        38.09608        -0.82689
C         52.69309        40.22744        -0.60654
C         51.47095        39.52146        -0.79201
C         52.71886        41.66524        -0.65704
C         51.48487        42.37437        -0.88577
C         52.79292        44.60570        -0.81303
C         51.50526        43.85016        -1.01045
C         52.70140        46.02474        -0.37737
C         51.48551        46.75458        -0.61237
C         52.60239        48.80836         0.14154
C         51.44913        48.14634        -0.38640
C         52.58832        50.21441         0.42501
C         51.36710        50.99114         0.25278
C         51.34027        52.37396         0.52683
C         54.96827        23.31951         1.43610
C         53.75820        22.70802         1.67379
C         55.03520        24.59059         0.80038
C         53.82850        25.24192         0.45748
C         55.17677        27.23511        -0.38521
C         53.84308        26.47662        -0.41269
C         55.19136        28.73145        -0.58164
C         53.89419        29.43107        -0.67493
C         55.24325        31.61391        -0.86298
C         53.92067        30.85443        -1.00693
C         55.19381        33.08510        -0.73621
C         53.94756        33.78612        -0.90176
C         55.14889        35.94584        -0.64038
C         53.93596        35.22266        -0.78650
C         55.14276        37.34495        -0.45073
C         53.90805        38.06774        -0.51133
C         55.10441        40.18538        -0.10003
C         53.90686        39.49839        -0.41003
C         55.10864        41.62207        -0.04730
C         53.93411        42.34455        -0.41843
C         55.10900        44.46240         0.25512
C         54.10642        43.83300        -0.67215
C         54.89996        45.82712         0.84436
C         53.79867        46.64927         0.21347
C         54.94890        48.71444         0.95445
C         53.78015        48.05414         0.44881
C         54.89932        50.08819         1.18892
C         53.73601        50.81869         0.94326
C         57.55295        24.56061         0.89062
C         56.30885        25.24901         0.64285
C         57.52774        27.36714         0.45361
C         56.35930        26.61945         0.26489
C         57.58066        28.78531         0.21664
C         56.40091        29.49355        -0.19781
C         57.58130        31.64623        -0.03595
C         56.42293        30.89910        -0.32504
C         57.60708        33.05610        -0.24335
C         56.39057        33.76497        -0.52779
C         57.64700        35.93436        -0.26303
C         56.45743        35.23441        -0.85721
C         57.60409        37.33248        -0.03821
C         56.36443        38.05304        -0.16979
C         57.50841        40.12695         0.49843
C         56.32945        39.44862         0.08422
C         57.38266        41.53062         1.03063
C         56.26690        42.31201         0.39544
C         57.42124        44.41413         1.12014
C         56.24493        43.73160         0.58892
C         57.39504        45.83645         1.25981
C         56.19362        46.57372         1.05293
C         57.40218        48.64481         1.48498
C         56.18744        47.96759         1.17389
C         58.70560        25.24630         1.08038
C         59.98248        27.40853         0.94123
C         58.67154        26.73696         1.21568
C         59.99960        28.74439         0.67550
C         58.79388        29.48110         0.43776
C         60.05954        31.66184         0.08481
C         58.80035        30.98340         0.55656
C         60.05980        32.99946        -0.14978
C         58.83965        33.76481        -0.15770
C         60.01941        35.91765         0.28632
C         58.84276        35.20814        -0.08075
C         59.99635        37.28411         0.46879
C         58.79459        38.02459         0.33342
C         59.91745        40.18637         0.90749
C         58.74188        39.44615         0.59135
C         59.88259        41.56663         1.09353
C         58.68307        42.28770         1.09375
C         59.81799        44.43881         1.65391
C         58.63888        43.71054         1.29641
C         59.79806        45.80275         1.79972
C         58.59514        46.53549         1.59143
C         58.57068        47.94802         1.69828
O         36.25333        35.40242         1.38880
O         29.60309        27.27339        -2.22677
O         39.27859        42.78970         1.67888
O         27.43520        26.60216         0.80234
O         34.73291        48.51915         1.82555
O         45.15351        46.15418         1.25632
O         46.61152        34.53784        -2.73699
O         45.46052        44.42579        -2.04953
O         43.75469        41.80083         1.11034
O         55.48155        27.78470        -1.70980
O         24.92012        42.12770         2.83384
O         46.79504        46.65029        -1.97407
O         50.12326        32.30359        -2.39361
O         31.34983        42.95268        -0.75816
O         26.69600        46.84847        -1.12601
O         52.27956        44.38156        -2.17275
O         49.68788        48.90228        -2.03813
O         47.05397        39.96286        -2.58471
O         41.62522        51.39737        -1.85341
O         33.47608        35.54501        -1.16687
O         36.88057        33.62914        -1.87912
O         26.31013        37.44732         2.67678
O         34.75049        46.38941        -1.05269
O         54.79546        31.14843        -2.17400
O         32.44917        33.24318         1.85131
O         39.61272        29.10243        -2.77977
O         43.48118        20.27203        -0.67075
O         44.22621        25.70149        -1.94851
O         41.71640        19.11689         2.45117
O         39.16498        47.50486         1.92529
O         58.38337        27.00944         2.65172
H         58.43233        27.98404         2.76530
O         45.86464        48.75170         2.04507
H         45.85347        47.78411         2.23610
O         42.91430        31.56993        -3.19756
H         42.84771        30.62501        -3.45353
O         35.75866        31.27574         1.56035
H         35.00593        31.63748         2.07669
O         49.06188        33.74912         0.73750
H         48.32600        34.27915         1.11046
O         27.94251        33.18127        -1.41650
H         28.45338        32.42023        -1.77506
O         37.66647        27.21644        -3.03393
H         38.38098        27.80105        -3.38945
O         28.02025        44.84856         2.87172
H         27.90884        43.99494         3.34324
O         56.97072        41.36270         2.46453
H         57.67293        40.83120         2.89819
O         53.67746        25.96863        -1.77346
H         54.13035        26.61679        -2.36513
O         29.25079        30.23969         1.72562
H         29.20504        30.97891         2.36722
O         58.72779        31.23792         2.02698
H         58.78684        32.21056         2.14621
O         29.01039        30.08961        -1.92088
H         29.10230        29.30241        -2.50897
O         47.12557        51.06481         1.70663
H         46.80835        50.24360         2.15458
O         42.63986        36.17530        -3.02540
H         43.52273        36.42510        -3.37401
O         54.76535        43.90034        -1.98544
H         54.03907        43.86425        -2.65347
O         24.00938        46.93152         2.34585
H         23.94648        46.06525         2.80348
O         47.37152        25.20102         2.30297
H         48.11477        24.82225         2.81965
O         38.08704        19.97880        -2.13201
H         37.32504        19.46566        -2.47702
O         56.68454        35.27487        -2.32179
H         55.96606        34.75627        -2.74426
O         38.74537        38.28672        -2.32566
H         38.76472        37.38817        -2.72108
O         30.86148        41.71969         2.64492
H         30.23232        41.16232         3.15015
O         23.70747        37.70115         2.97168
H         24.50529        37.74773         3.54730
O         47.32284        50.77327        -1.93789
H         47.99727        50.35235        -2.51689
O         40.28408        54.45887        -2.51445
H         39.56435        53.84979        -2.78649
O         54.37179        45.54677         2.20736
H         55.08457        45.09153         2.70634
O         26.58439        25.69485        -2.57664
H         26.58598        24.88560        -3.12917
O         30.45919        46.17723         2.57524
H         29.62086        45.79226         2.93832
O         40.13740        42.13267        -1.80774
H         40.62145        41.49228        -2.37087
O         25.35196        31.40444         2.08191
H         24.50123        31.79334         2.37878
H         21.97335        26.90251        -0.53166
H         22.00613        29.34146        -0.21526
H         22.07537        31.26447        -0.31539
H         22.09344        33.65945         0.09035
H         22.28723        35.67099        -0.19918
H         22.25023        38.01301         0.43296
H         22.12292        39.63295         1.57709
H         21.99516        42.05134         1.36882
H         22.11780        43.87258         0.51843
H         22.07772        46.31184         0.16845
H         25.22066        23.47339        -1.10624
H         23.18282        24.72396        -0.61601
H         25.28633        49.63960        -0.55140
H         23.26346        48.54197         0.19491
H         26.95022        22.52620        -0.92238
H         27.00442        50.64351        -0.39614
H         29.05748        21.30746        -0.84369
H         29.08382        51.90884        -0.34264
H         32.78891        19.14868        -0.70867
H         30.69122        20.35831        -0.84777
H         32.81241        54.08976        -0.51654
H         30.72249        52.88554        -0.37107
H         34.42856        18.23110        -0.40366
H         34.43118        55.05049        -0.48696
H         36.48648        17.07737         0.15944
H         36.51944        56.26175        -0.67734
H         40.13721        15.04572         1.35996
H         38.12994        16.14361         0.50140
H         40.26684        58.43563        -0.54554
H         38.13960        57.21941        -0.45747
H         42.54248        15.19161         2.05826
H         42.69165        58.47920        -0.41863
H         44.65537        16.40762         2.15565
H         44.86272        57.31514        -0.33298
H         48.41215        18.62370         2.30944
H         46.32588        17.38528         2.22469
H         48.64897        55.18543        -0.39171
H         46.52137        56.38836        -0.56886
H         50.03645        19.58947         2.33554
H         50.18526        54.18634         0.61441
H         52.13295        20.79967         2.24522
H         52.25285        52.90021         0.83268
H         55.89209        22.81307         1.74424
H         53.75716        21.72031         2.15193
H         55.76887        50.62261         1.59118
H         53.74734        51.88999         1.17710
H         57.56647        23.46143         0.87738
H         57.42235        49.73969         1.55612
H         59.65698        24.71849         1.24105
H         60.91636        26.86114         1.13447
H         60.96446        29.27009         0.64097
H         61.00610        31.10597         0.04669
H         61.00623        33.50619        -0.38881
H         60.96154        35.37314         0.43645
H         60.92881        37.79151         0.74877
H         60.89226        39.68378         0.93943
H         60.84004        42.08915         1.22607
H         60.76067        43.90138         1.82092
H         60.71402        46.34635         2.07246
H         59.49858        48.48404         1.94397
