         276
 CSIRO Nanostructure Databank - Neutral Graphene Oxide Data Set
C        -10.28618         0.21910        -1.67760
C         -9.80748         1.28048        -0.70781
C         -8.77836         0.68826         0.28797
C         -7.54707         1.48932         0.64694
C         -6.23273         0.71594         0.73133
C         -4.98427         1.56975         0.99703
C         -3.66513         0.76026         0.94949
C         -2.49963         1.19838         0.06205
C         -1.21633         0.43297         0.15597
C          0.09911         1.14660        -0.10700
C          1.41277         0.42919         0.00776
C          2.71685         1.26868         0.10669
C          3.80080         0.60202         0.96977
C          5.03427         1.41225         1.24201
C          6.36362         0.71055         1.46264
C          7.65281         1.48017         1.42421
C          8.95711         0.74881         1.16691
C         10.12877         1.54160         0.60882
C         11.16070         0.83003        -0.17917
C         -9.32200         2.52592        -1.46967
C         -8.52669         3.52435        -0.64915
C         -7.48900         2.93197         0.23519
C         -6.19405         3.64316         0.18623
C         -4.96955         2.80064         0.11856
C         -3.73059         3.37278        -0.48822
C         -2.46374         2.55101        -0.71095
C         -1.10194         3.31832        -0.64399
C         -0.00167         2.63973         0.20335
C          1.31925         3.39392         0.30255
C          2.52183         2.75611         0.45911
C          3.80287         3.48852         0.60138
C          5.00231         2.84310         0.85331
C          6.33176         3.52981         0.56180
C          7.60818         3.02571         1.32915
C          8.80078         3.68347         0.63455
C          9.95580         2.96494         0.32084
C         -8.45036         4.84729        -0.96892
C         -7.32550         5.69249        -0.54582
C         -6.13253         4.96004        -0.13457
C         -4.76441         5.58837         0.02994
C         -3.68242         4.86982        -0.82620
C         -2.28343         5.59590        -0.58365
C         -1.02707         4.78705        -0.94364
C          0.35571         5.48950        -0.79947
C          1.14461         4.90372         0.48593
C          2.47512         5.61898         0.68817
C          3.77477         4.94940         0.38166
C          4.94423         5.65463         0.23135
C          6.23236         5.04427         0.76170
C          7.44757         5.79349         0.19844
C          8.73959         5.05471         0.36441
C         -7.27475         7.05107        -0.72005
C         -6.06319         7.83415        -0.37315
C         -4.77057         7.09768        -0.11301
C         -3.43832         7.79333        -0.30610
C         -2.38345         7.05193        -1.15651
C         -0.99163         7.77825        -1.31147
C          0.27547         7.02853        -0.89364
C          1.44025         7.75169        -0.99731
C          2.77844         7.23821        -1.19174
C          3.96281         7.93036        -0.63251
C          5.07435         7.11735        -0.03618
C          6.18566         7.84989         0.65182
C          7.38356         7.21096         0.73011
C         -5.94458         9.26978        -0.72621
C         -4.77987         9.94277        -0.60276
C         -3.47205         9.28349        -0.39997
C         -2.23791         9.95133        -0.81179
C         -1.02409         9.24670        -0.90028
C          0.18285         9.92219        -0.80247
C          1.47209         9.30025        -1.19293
C          2.61658         9.95439        -0.45211
C          3.79654         9.33704        -0.19061
C          4.86943         9.93720         0.58721
C          5.97370         9.24851         0.98212
C        -10.17014        -1.10549        -1.46584
C         -9.48070        -1.69682        -0.32001
C         -8.73545        -0.78280         0.58951
C         -7.57546        -1.35700         1.44878
C         -6.22583        -0.75355         1.03904
C         -4.95271        -1.47369         1.40883
C         -3.68172        -0.68707         1.37870
C         -2.40157        -1.47367         1.44535
C         -1.16897        -0.91954         0.79715
C          0.11982        -1.65642         0.84995
C          1.45518        -1.10822         0.30827
C          2.57900        -1.51513         1.22574
C          3.89983        -0.91755         0.79580
C          5.11600        -1.58589         1.43904
C          6.39245        -0.81162         1.45486
C          7.68207        -1.54306         1.13814
C          8.95799        -0.75083         0.98001
C         10.09903        -1.38849         0.15788
C         11.13382        -0.49366        -0.40899
C         -9.46620        -3.03642        -0.12747
C         -8.80614        -3.67400         1.07267
C         -7.54488        -2.90637         1.48370
C         -6.22795        -3.61567         1.54528
C         -4.94761        -2.84521         1.45108
C         -3.70794        -3.70892         1.51196
C         -2.41645        -2.95331         1.65191
C         -1.18826        -3.69011         1.32977
C          0.09516        -2.99011         1.54173
C          1.34974        -3.76858         1.60729
C          2.68403        -2.99231         1.66760
C          3.79705        -3.61438         0.83587
C          5.17730        -3.11738         1.23890
C          6.27642        -3.56866         0.31490
C          7.58028        -2.92413         0.43531
C          8.68185        -3.39581        -0.45490
C          9.86446        -2.64680        -0.54553
C         -8.56561        -5.14627         0.81502
C         -7.37751        -5.80211         0.95287
C         -6.16218        -5.09344         1.33907
C         -5.04155        -5.77028         1.73249
C         -3.95877        -4.96982         2.37651
C         -2.50646        -5.43324         0.37171
C         -1.27292        -5.01955         0.91985
C         -0.05918        -5.83475         0.78849
C          1.26934        -5.21115         1.14931
C          2.46368        -5.77718         0.43102
C          3.66960        -4.93450         0.17336
C          4.88305        -5.61233        -0.39370
C          6.17743        -4.84846        -0.38100
C          7.13740        -5.10512        -1.53249
C          8.49980        -4.53240        -1.25653
C         -7.27873        -7.24763         0.81193
C         -6.13348        -7.93391         1.07273
C         -4.85994        -7.25945         1.54695
C         -3.77567        -7.69225         0.49633
C         -2.67933        -6.81846        -0.09617
C         -1.38648        -7.45457        -0.62227
C         -0.13451        -7.02518         0.11428
C          0.95594        -7.45785        -0.84040
C          2.36407        -7.08416        -0.35984
C          3.31391        -7.28991        -1.60093
C          4.60787        -6.38954        -1.69055
C          5.83871        -7.13999        -2.17979
C          7.04853        -6.53053        -2.04877
C         -6.03037        -9.36965         0.84130
C         -4.84675        -9.96690         0.60225
C         -3.53567        -9.21581         0.51433
C         -2.72715        -9.70151        -0.71162
C         -1.41101        -8.96240        -0.81259
C         -0.26550        -9.60980        -1.15767
C          1.01514        -8.91793        -1.25502
C          2.16493        -9.48826        -1.72421
C          3.55174        -8.82601        -1.72244
C          4.44334        -9.04135        -2.92985
C          5.58632        -8.32396        -3.00931
O          0.63433        -3.36283         2.84413
O         -7.01962        -3.34334         2.76942
O         -3.91379        -7.10690        -0.82312
O          3.44626        -3.68541        -0.56772
O         -3.29329        -5.33743         3.32493
O         -3.52992        -4.49845         0.21035
O          2.46834         6.66442         1.34891
O          5.68787        -1.21257         2.70089
O         -9.53304         0.12638         1.41822
O         -2.25127        -2.04072         2.78277
O          0.78341         0.71919        -1.30291
O         -6.13656        -0.26285        -0.34548
O          0.42926        -6.69502        -2.00121
O          5.90313        -6.02979         0.51359
O          5.11916         7.54545        -1.46258
O         -0.70954         7.82429        -2.81785
O         -1.08690        -6.84411        -1.94136
O         -0.91702         3.82955        -2.01449
O         -0.78698        -1.84863        -0.29538
O         -3.11242         8.52438         0.89270
O          7.05312         1.10254         2.70325
O          4.00774         1.12461         2.28474
O         -7.83311         2.52389         1.62071
O         -3.39937         0.41254         2.33917
O         10.06561        -1.41018         1.62845
O         10.02544         1.18762         2.04541
O          4.36628        -5.38913        -2.67265
O         -5.54845         7.62484         1.00347
O          2.22965        -6.03778         1.86543
O          7.90485        -2.74583         1.88116
O         -2.14328         0.20627        -0.95392
O         -4.74657         2.64564        -1.30804
O         -2.00696         5.76728         0.81825
H         -2.84039         5.94327         1.32667
O          3.06565         6.40657        -2.15941
H          4.05894         6.43352        -2.27979
O          3.28799         1.31634        -1.21886
H          2.54663         1.27085        -1.86465
O          4.19646        -1.12145        -0.61847
H          3.41531        -1.54831        -1.05631
O         -2.59330         2.22763        -2.11257
H         -1.97992         1.48720        -2.32006
O          4.34402        -9.41421        -0.67066
H          3.86112        -9.30165         0.18061
O          6.69100        -4.23355        -2.61358
H          5.74696        -4.55215        -2.84748
O          1.16490         5.06442        -1.89779
H          0.64432         4.41530        -2.43360
O          7.22055         5.84951        -1.25998
H          7.97320         6.32994        -1.66606
O         -8.43097         2.06261        -2.49445
H         -8.08184         2.83191        -2.98924
O         -2.73249        -9.52933         1.67042
H         -3.25265        -9.25312         2.46332
O          0.37800         5.14934         1.67062
H          0.70169         5.99776         2.05617
O         -4.03093         4.96081        -2.21016
H         -4.32061         4.06443        -2.50063
O         -3.49151        -9.55788        -1.90956
H         -3.66797        -8.59815        -2.04352
O        -10.95402         1.72508         0.04206
H        -11.07974         1.09103         0.78526
O         -9.73372        -3.57876         2.18379
H         -9.20304        -3.67472         3.00536
O         -7.75744        -0.93282         2.80770
H         -8.53943        -0.32864         2.83413
O         -1.41481         8.94345        -3.40266
H         -2.36308         8.64587        -3.33477
O          6.56933         3.23162        -0.83878
H          6.79553         4.07247        -1.30959
O         -5.14779         2.11987         2.31429
H         -4.74966         1.49363         2.96406
O          6.12464         5.39275         2.15454
H          5.59782         4.70907         2.61916
O          1.69715         9.47226        -2.62331
H          0.85977         9.21726        -3.07631
O          1.63623        -1.76176        -0.97480
H          0.83178        -1.57493        -1.51178
O          7.61589         3.52236         2.67158
H          7.47648         2.76012         3.28118
O         -2.99482         7.08298        -2.45952
H         -2.53038         6.44562        -3.04406
O         -4.43667         5.32857         1.42850
H         -5.01476         5.92722         1.95804
O         -0.57997         2.64493         1.54160
H         -0.45075         3.55237         1.92071
O          2.63789        -8.11418         0.62590
H          2.43765        -7.73633         1.51738
O          3.13439        -3.03329         3.03049
H          2.35661        -2.85113         3.60306
O         -4.47646        -7.82557         2.82224
H         -3.97802        -7.13842         3.32928
O          2.56815        -7.00224        -2.78565
H          2.95831        -6.16813        -3.16786
O          5.50324        -3.75959         2.48648
H          5.87693        -3.06399         3.08202
H         11.89425        -0.95310        -1.05858
H         11.93982         1.44880        -0.64984
H         10.76305         3.47619        -0.22529
H          9.63304         5.53494        -0.06820
H          8.27132         7.70356         1.15313
H          6.76382         9.76356         1.54765
H          4.76088        10.99722         0.85847
H          2.46164        10.98423        -0.09529
H          0.19249        10.94844        -0.40933
H         -2.19903        11.04943        -0.75514
H         -4.75572        11.01895        -0.83467
H         -6.86265         9.80902        -1.00511
H         -8.14766         7.59268        -1.11464
H         -9.19649         5.28883        -1.64956
H        -10.21320         3.02739        -1.93833
H        -10.83847         0.57335        -2.56092
H        -10.61428        -1.81131        -2.18467
H        -10.00821        -3.68885        -0.82905
H         -9.46775        -5.73571         0.58848
H         -8.17207        -7.79180         0.46989
H         -6.96145        -9.95685         0.82253
H         -4.80550       -11.05191         0.42372
H         -2.52334       -10.79355        -0.57954
H         -0.29261       -10.69527        -1.34461
H          2.12330       -10.54269        -2.04866
H          4.25788        -9.88077        -3.61727
H          6.33359        -8.56240        -3.78402
H          7.95258        -6.98417        -2.48539
H          9.33190        -4.83634        -1.91155
H         10.60613        -2.94373        -1.30301
