         651
 CSIRO Nanostructure Databank - Neutral Graphene Oxide Data Set
C          5.84900        31.68692         0.16189
C          5.88094        33.02081        -0.04832
C          8.39049        27.32866         0.22891
C          8.30310        28.75235         0.39678
C          7.12242        29.46447         0.35858
C          8.33779        31.63510         0.14626
C          7.06873        30.94949         0.68104
C          8.32839        33.14292         0.27540
C          7.10187        33.82357         0.09591
C          8.26472        35.99348         0.11000
C          7.07305        35.22939         0.02331
C          8.27442        37.43758         0.06294
C         10.87145        23.08599        -0.24898
C         10.80481        24.48548        -0.26094
C          9.62144        25.20752         0.00216
C         10.87420        27.34454        -0.01879
C          9.60199        26.62597         0.09245
C         10.88838        28.76984         0.38864
C          9.57866        29.46556         0.68160
C         10.85179        31.71110         0.68773
C          9.55627        30.96602         0.74002
C         10.82198        33.18936         0.48148
C          9.53381        33.87738         0.38120
C         10.71806        36.08516         0.45776
C          9.48646        35.28939         0.30730
C         10.75230        37.45363        -0.19458
C          9.45563        38.20229         0.02172
C         10.71069        40.36953         0.09929
C          9.49146        39.60858         0.02664
C         10.71188        41.75836        -0.00110
C         13.38086        18.83677        -0.23651
C         13.35903        20.24831        -0.28023
C         12.13449        20.96376        -0.25486
C         13.36037        23.06728        -0.42727
C         12.10430        22.36343        -0.35584
C         13.34529        24.51589        -0.71132
C         12.01752        25.24750        -0.64252
C         13.26944        27.44899        -0.74031
C         12.02492        26.70556        -0.40141
C         13.27901        28.93565        -0.48514
C         12.07042        29.60786         0.08076
C         13.30526        31.77262        -0.00001
C         12.07333        30.95399         0.32386
C         13.28595        33.15088         0.62484
C         11.99755        33.88222         0.54491
C         13.24833        36.06603         0.16086
C         12.01221        35.35426         0.60499
C         13.22928        37.55151         0.23962
C         12.00171        38.23359         0.15812
C         13.20275        40.33939         0.38491
C         11.97788        39.64159         0.25047
C         13.19917        41.81073         0.51120
C         11.90739        42.57694         0.26793
C         13.19491        44.72233        -0.03613
C         12.00694        44.00459        -0.11414
C         13.35721        46.08562        -0.39990
C         15.67906        14.47127        -0.36995
C         15.77735        15.98696        -0.46250
C         14.61017        16.70410        -0.27351
C         15.83339        18.83747        -0.46477
C         14.59126        18.12954        -0.32287
C         15.84158        20.26082        -0.41627
C         14.60606        20.96630        -0.31598
C         15.83713        23.15553        -0.00592
C         14.57201        22.39320        -0.32672
C         15.80134        24.60815        -0.43054
C         14.63365        25.26129        -0.65598
C         15.92482        27.52045        -1.02917
C         14.58750        26.72443        -0.96723
C         15.85582        28.84733        -0.26516
C         14.58992        29.64051        -0.31075
C         15.84367        31.76023         0.18581
C         14.57034        30.98239         0.40961
C         15.84448        33.14085         0.26136
C         14.57829        33.87986         0.52697
C         15.85624        36.06693         0.04618
C         14.53798        35.32028         0.13725
C         15.71789        37.50289         0.54772
C         14.44437        38.25197         0.36960
C         15.72664        40.41728         0.35612
C         14.43829        39.65942         0.41295
C         15.76513        41.85176         0.69616
C         14.49705        42.53036         0.32647
C         15.63831        44.74007         0.75784
C         14.47711        43.99479         0.18840
C         15.73107        46.14453         0.39013
C         14.60916        46.75823        -0.29735
C         15.93910        48.82624        -0.46489
C         14.78808        48.06046        -0.79720
C         16.20669        50.05693        -1.07729
C         18.41383        10.42136         0.76246
C         18.35398        11.76946         0.08254
C         17.14928        12.40767         0.05151
C         18.24283        14.43781        -0.99089
C         16.97894        13.71660        -0.59477
C         18.19734        15.93006        -1.16541
C         16.99035        16.68254        -0.75597
C         18.29118        18.81585        -0.84481
C         17.03460        18.09290        -0.69142
C         18.29022        20.26770        -0.71271
C         17.09696        20.97731        -0.51039
C         18.30040        23.11985        -0.39886
C         17.11403        22.43061        -0.39820
C         18.34530        24.61154        -0.13122
C         17.11980        25.28097        -0.76489
C         18.42883        27.43304        -0.22822
C         17.10726        26.75096        -0.50747
C         18.40442        28.93120        -0.40486
C         17.14084        29.56523         0.02634
C         18.31873        31.80510        -0.16129
C         17.15601        31.03717         0.39916
C         18.29048        33.17977         0.04492
C         17.07718        33.86022         0.32163
C         18.29038        36.05855         0.32222
C         17.04587        35.31278         0.73858
C         18.23259        37.48691         0.20970
C         17.00491        38.24105         0.57841
C         18.26799        40.43377         0.72241
C         17.03631        39.71017         0.34408
C         18.22659        41.82245         1.01992
C         16.93707        42.51900         0.96432
C         18.15303        44.77469         1.37214
C         16.91227        43.99463         1.19225
C         18.02183        46.18316         1.37651
C         16.87373        46.85356         0.75310
C         17.96591        49.05470         0.93763
C         16.91795        48.26702         0.46015
C         17.98010        50.50470         0.74120
C         17.12784        51.00362        -0.46842
C         18.64808        52.98088        -0.65011
C         17.67711        52.14454        -1.19030
C         19.08185        54.12318        -1.35310
C         20.83154         6.07725         1.12628
C         20.89377         7.55870         0.82321
C         19.71471         8.29186         0.85002
C         20.86775        10.31273         0.11800
C         19.69386         9.66265         0.53035
C         20.83856        11.71596        -0.26647
C         19.58231        12.42093        -0.35122
C         20.76101        14.51173        -0.87384
C         19.54168        13.77173        -0.74664
C         20.77148        15.93390        -1.02946
C         19.50186        16.67904        -1.23584
C         20.75099        18.86609        -1.41698
C         19.48512        18.13828        -1.02466
C         20.75608        20.30578        -0.95360
C         19.56151        20.95716        -0.69245
C         20.88254        23.17647        -0.47083
C         19.57310        22.39124        -0.35766
C         20.80721        24.65230        -0.73144
C         19.61806        25.30612        -0.64047
C         20.81081        27.55484        -1.14637
C         19.50926        26.76098        -1.09324
C         20.77854        28.92917        -1.06590
C         19.53787        29.63262        -0.69841
C         20.78894        31.86657        -0.62189
C         19.47417        31.14223        -0.87967
C         20.76997        33.22274        -0.37304
C         19.57775        33.94135         0.19077
C         20.78168        36.13318         0.10697
C         19.49681        35.39563        -0.27701
C         20.77697        37.50921         0.46535
C         19.54555        38.29187         0.32693
C         20.66124        40.35647         1.13536
C         19.47935        39.70054         0.79744
C         20.66631        41.77829         1.32536
C         19.42458        42.51292         1.30475
C         20.74713        44.62875         1.59153
C         19.39797        43.95213         1.83254
C         20.96893        45.88683         2.04744
C         19.01815        47.08613         1.91088
C         20.24087        49.27741         1.89312
C         19.04670        48.46295         1.67416
C         20.47326        50.50593         1.30325
C         19.15329        51.32577         1.29870
C         20.25513        53.62174         1.21947
C         19.04778        52.81212         0.80550
C         20.71237        54.65458         0.44663
C         19.96968        55.05839        -0.74844
C         20.70334        57.41329        -0.24163
C         20.02621        56.38516        -1.13761
C         20.88577        58.65947        -1.06711
C         23.48079         3.87191         2.83086
C         22.22390         4.38744         2.35091
C         23.38084         6.10872         1.02351
C         22.15357         5.49953         1.56358
C         23.36653         7.51984         0.59979
C         22.11854         8.21248         0.49472
C         23.33110        10.23806        -0.24079
C         22.10282         9.58961         0.11372
C         23.32262        11.66160        -0.55427
C         22.04002        12.37674        -0.56559
C         23.20266        14.52738        -0.84428
C         21.99805        13.79606        -0.79324
C         23.19591        15.92799        -0.79217
C         21.97030        16.65930        -0.90314
C         23.17361        18.81554        -0.78986
C         22.00532        18.11739        -0.99595
C         23.24574        20.24563        -1.36288
C         21.99684        21.02835        -1.00497
C         23.32579        23.20201        -1.10032
C         22.06152        22.39912        -0.89404
C         22.97247        24.49989        -1.78067
C         21.96557        25.31277        -1.34693
C         23.36357        27.55595        -1.68698
C         22.00463        26.78968        -1.59598
C         23.34631        29.04746        -1.44695
C         22.00400        29.75591        -1.26984
C         23.26914        31.80824        -0.63313
C         22.03204        31.16501        -0.80929
C         23.30161        33.28204        -0.48442
C         21.99363        34.02497        -0.41155
C         23.21756        36.09018         0.35583
C         21.98086        35.42096         0.09397
C         23.18978        37.48472         0.63758
C         21.97833        38.17925         0.77186
C         23.18207        40.36981         1.20544
C         21.93183        39.56566         1.38678
C         23.20553        41.74139         1.81221
C         21.92121        42.44318         1.39867
C         23.22995        44.57858         1.09964
C         21.90027        43.87955         0.93940
C         23.25953        46.01275         1.17093
C         22.14529        46.67830         1.72767
C         23.30658        48.84837         1.47276
C         22.22029        48.06761         1.91249
C         23.23555        50.33991         1.41336
C         21.87651        51.09544         1.27911
C         23.27534        53.18507         0.65182
C         22.10381        52.27456         0.36192
C         23.27206        54.58001         0.59978
C         22.00000        55.36656         0.67796
C         23.32237        57.48952         0.05230
C         22.00877        56.81762         0.31915
C         23.34594        58.78143        -0.74282
C         22.08320        59.26330        -1.35686
C         23.40451        60.89709        -2.63906
C         22.17409        60.36868        -2.26224
C         24.66840         4.43567         2.48562
C         25.90125         6.39176         1.41272
C         24.72978         5.51713         1.49517
C         25.84936         7.60308         0.76741
C         24.57563         8.19609         0.36729
C         25.82375        10.15721        -0.53520
C         24.54676         9.53338        -0.13885
C         25.83335        11.66037        -0.84081
C         24.51434        12.33952        -0.74749
C         25.59835        14.49675        -0.17613
C         24.52010        13.82083        -0.98702
C         25.55320        15.95748        -0.06982
C         24.41985        16.63932        -0.47485
C         25.35031        18.67087         0.39443
C         24.34376        18.07796        -0.32482
C         25.47013        20.77609        -0.25105
C         24.49182        21.09888        -1.13540
C         25.89165        23.24218        -1.52451
C         24.53266        22.48391        -1.77468
C         25.93864        24.74105        -1.41486
C         24.87169        25.55226        -1.86392
C         25.80383        27.57586        -0.94354
C         24.67619        26.88527        -1.48534
C         25.77241        28.98951        -0.73311
C         24.56078        29.72653        -0.92352
C         25.80804        31.87510        -0.46682
C         24.51030        31.10074        -0.63259
C         25.71177        33.15325         0.34980
C         24.44785        33.92659         0.22325
C         25.69226        36.05048         0.67572
C         24.46137        35.39095         0.39526
C         25.72336        37.47475         0.80462
C         24.46679        38.21040         0.60018
C         25.71303        40.33629         1.23466
C         24.43240        39.72325         0.83095
C         25.67152        41.77979         1.34288
C         24.46526        42.46334         1.38286
C         25.67731        44.57025         0.87922
C         24.43708        43.87737         1.13578
C         25.61802        45.98887         0.48526
C         24.43573        46.75393         0.91909
C         25.79814        48.85867         1.15195
C         24.46604        48.15287         1.04564
C         25.71325        50.33919         0.87262
C         24.49378        51.03216         0.94190
C         25.74771        53.14936         0.62637
C         24.50894        52.45081         0.75109
C         25.74427        54.56148         0.42821
C         24.52064        55.29360         0.42619
C         25.77990        57.31612        -0.26357
C         24.55286        56.68510         0.11061
C         25.79711        58.59011        -0.92222
C         24.63043        59.23664        -1.31593
C         24.61530        60.34184        -2.20193
C         27.07278         8.36527         0.57648
C         28.38414        10.24740        -0.44199
C         27.08925         9.55470        -0.07533
C         28.32628        11.77049        -0.33167
C         27.11156        12.40719        -0.61099
C         28.06190        14.77335        -0.39829
C         26.95648        13.83508        -0.25425
C         28.07760        16.05111         0.10382
C         26.76153        16.63814         0.44997
C         27.91716        18.88898         0.10970
C         26.68485        18.11108         0.63413
C         27.90670        20.42492         0.16641
C         26.84508        21.18547        -0.31959
C         28.26362        23.22752        -0.40252
C         27.06487        22.52085        -0.89106
C         28.24745        24.67289        -0.49218
C         27.02904        25.40515        -0.81762
C         28.17523        27.53742        -0.25984
C         27.00121        26.83239        -0.68018
C         28.18698        28.91906        -0.09313
C         26.96073        29.67002        -0.26275
C         28.08746        31.66133         0.77509
C         26.95458        31.03115        -0.00073
C         28.16234        33.18012         0.68857
C         26.97299        33.89976         0.59800
C         28.15525        36.03562         0.95060
C         26.93397        35.32370         0.74637
C         28.16956        37.46301         1.10146
C         26.92621        38.17821         1.04742
C         28.14850        40.31379         1.73825
C         26.88962        39.60989         1.27841
C         28.10935        41.78467         1.37244
C         26.93132        42.48809         1.23891
C         28.13069        44.64691         0.75187
C         26.90055        43.91601         0.96980
C         28.14495        45.95737         0.33929
C         26.89818        46.72409         0.17882
C         28.16035        48.83374         0.41513
C         26.96510        48.18336         0.45137
C         28.21693        50.26315         0.80381
C         26.94706        51.02905         0.73519
C         28.24711        53.12295         0.44361
C         26.98164        52.42817         0.63950
C         28.21224        54.52077         0.22992
C         26.99623        55.23897         0.20230
C         26.98989        56.60609        -0.13596
C         29.52095        12.41504         0.15829
C         30.70257        14.67239         0.62337
C         29.86078        13.76577        -0.06307
C         30.55997        16.10532         0.59423
C         29.29765        16.78462         0.32387
C         30.31791        18.94343         0.93711
C         29.20107        18.18355         0.53386
C         30.10426        20.33475         1.13393
C         29.13841        21.11012         0.46223
C         30.58968        23.32035         0.60059
C         29.29790        22.53245         0.22408
C         30.67494        24.53967        -0.35188
C         29.41128        25.34254        -0.21836
C         30.70147        27.46343         0.21677
C         29.39586        26.77134         0.04561
C         30.74239        28.94577        -0.10235
C         29.42355        29.64158         0.17596
C         30.61182        31.66754         1.00262
C         29.40226        30.97219         0.49361
C         30.62499        33.14453         1.04917
C         29.39806        33.86936         0.93174
C         30.59917        36.00558         1.29005
C         29.37889        35.30185         1.03966
C         30.64515        37.44869         1.21921
C         29.42597        38.16963         1.17328
C         30.61067        40.34996         1.11093
C         29.43095        39.62572         1.28129
C         30.63310        41.77628         1.29301
C         29.37666        42.51618         1.42780
C         30.67743        44.62229         0.66477
C         29.40908        43.99668         1.10294
C         30.68154        45.94255         0.22370
C         29.40794        46.64453         0.02936
C         30.73198        48.83907         0.08969
C         29.41282        48.15792        -0.00678
C         30.75148        50.21887         0.22916
C         29.55037        50.99379         0.59708
C         29.45713        52.42394         0.34492
C         31.66748        16.91390         0.97333
C         32.88250        19.03474         1.16979
C         31.62930        18.32448         1.09115
C         33.12739        20.42334         1.05692
C         32.02898        21.36614         1.18147
C         33.18799        23.11320         0.01660
C         31.91226        22.54265         0.51802
C         33.22509        24.57816        -0.32559
C         31.95071        25.33065        -0.18040
C         33.19887        27.40162         0.24844
C         31.95970        26.68089         0.04115
C         33.14513        28.81453         0.52518
C         31.94765        29.55515         0.54913
C         33.24428        31.60989         1.48137
C         31.90651        30.90420         1.14526
C         33.18358        33.15405         1.34281
C         31.83278        33.81846         1.34418
C         33.49359        36.17012         0.86753
C         31.73304        35.20311         1.57854
C         33.19558        37.55255         0.47090
C         31.89934        38.21728         0.89725
C         33.03902        40.27913         0.01972
C         31.67650        39.61128         0.29115
C         33.50482        41.45408         0.51461
C         31.79100        42.56682         1.29379
C         33.13584        44.46524         0.30141
C         31.89124        43.89470         0.80283
C         33.11539        45.84785         0.00492
C         31.92395        46.63492         0.02810
C         31.91532        48.05203        -0.06355
C         34.37900        21.04365         0.78854
C         35.64064        23.15895         0.47203
C         34.44562        22.41940         0.43785
C         35.71709        24.57047         0.27521
C         34.55012        25.33524        -0.34216
C         35.60672        27.37612         0.66355
C         34.43096        26.72330         0.23967
C         35.46600        28.70695         1.12998
C         34.35648        29.48918         0.85266
C         35.67135        31.72474         0.44812
C         34.33907        30.98366         0.60174
C         35.55430        33.07110         0.17553
C         34.41251        33.87496         0.71628
C         35.21431        35.82229        -0.82266
C         34.29438        35.27953         0.22013
C         35.14752        37.28181        -1.18237
C         34.01376        38.10369        -0.65929
C         35.30098        40.23080        -1.21837
C         34.00239        39.58172        -0.86602
C         35.42341        41.62551        -0.98136
C         34.46563        42.30579        -0.17515
C         34.30786        43.70687        -0.09115
C         36.88621        25.28834         0.51549
C         38.10690        27.44620         0.31696
C         36.91756        26.73811         0.52642
C         38.22022        28.88064         0.09494
C         37.24907        29.75509         0.63971
C         37.92637        31.59145        -0.69983
C         36.91825        31.01735         0.10293
C         37.70868        32.92753        -1.26561
C         36.50218        33.70204        -0.77438
C         37.54652        35.79001        -1.69152
C         36.49949        35.14618        -1.02500
C         37.48456        37.21126        -1.94083
C         36.36710        37.98943        -1.63462
C         36.37152        39.42293        -1.65190
C         39.21465        29.50243        -0.70108
C         40.16188        31.59406        -1.72167
C         39.11602        30.87577        -1.01275
C         40.06434        32.92036        -2.03624
C         38.86234        33.68809        -1.78844
C         38.74888        35.04305        -2.01341
O         33.33622        38.69584        -1.83223
O         21.22941        48.67858         2.66469
O         13.93970        29.63463        -1.61076
O         22.78910        33.96033        -1.66019
O         26.76011        17.25087         1.81218
O         20.36503        22.77069         0.84786
O         18.75814        16.31541        -2.46871
O         32.97498        41.96757         1.69689
O         11.36478        35.97422         1.76451
O         34.21823        33.74756         2.16035
O         24.50287        39.15239        -0.53936
O         12.44679        42.31353         1.64492
O         30.96940        20.98449         2.01613
O         14.03844        33.46228         1.85176
O         29.03810        50.58121         1.94853
O         23.90877        24.97305        -2.70036
O         33.20655        23.55465        -1.40067
O         26.02157        46.28056        -0.90995
O         26.16006        13.89570         1.01510
O         16.43758        40.13063        -0.92345
O         24.77076        33.15396         1.45664
O         29.96103        27.11376         1.40650
O         26.91457        22.64878        -2.38010
O         29.30329        47.38941        -1.24443
O         12.57444        24.81729        -1.92746
O         13.75824        35.51359        -1.10279
O         15.87266        44.41706         2.15841
O         25.15788        19.95812         0.84804
O         34.62224        36.25375        -2.10298
O         33.08514        38.32854         1.73710
O         23.37953        58.79541         0.72221
O         25.88613        10.65803        -1.91082
O         10.14376        31.44828         1.96497
O         13.73932        27.09425        -2.09085
O         30.99707        31.03686         2.31277
O         21.57230        52.27037        -0.74744
O         27.96315        18.66394        -1.28512
O         10.36767        28.89824         1.76248
O         32.87275        35.83581         2.07984
O         36.49297        32.97491        -2.08607
O         21.93487        56.40261         1.72531
O         18.90093        38.07055        -0.96925
O         16.44371        28.75212         1.06251
O         17.41221        13.73987        -1.99409
O         14.73106        43.15584        -1.00272
O         22.68475        29.70185        -2.57385
O         29.14862        14.34172        -1.15123
O         36.55745        29.30886         1.76566
O         16.74600        51.19783         0.96025
O         16.38191        37.81721         1.82353
O         29.42883        43.54062         2.50239
O         22.62677        51.08188         2.52239
O         22.59430        27.19238        -2.86503
O         24.15802         5.20635         0.17884
O         19.96091        46.54054         2.78675
O         16.89417        35.34288         2.17660
H         16.19983        34.70041         2.43515
O         17.23268        25.06353        -2.21351
H         16.96276        25.89789        -2.66847
O         29.46964         9.70936         0.30710
H         29.25304         9.76949         1.25976
O         26.16532        32.35697        -1.81374
H         26.10147        31.60013        -2.43483
O         14.47642        30.69039         1.82646
H         14.36535        31.55543         2.29117
O         19.36374        35.40419        -1.71552
H         19.17496        36.33206        -1.98866
O         33.55736        31.29710         2.83930
H         32.73702        31.41464         3.36753
O         18.82757        27.22843         1.15405
H         18.07201        27.51588         1.71427
O         18.88854        51.42593         2.73618
H         18.03207        51.90924         2.82264
O         31.00806        39.49451        -0.98597
H         31.66275        39.14348        -1.64331
O         28.13281        40.26468         3.20358
H         28.80621        40.89753         3.53345
O         17.93800        53.38579         1.57161
H         17.74815        54.27360         1.20053
O         13.31725        32.11332        -1.40313
H         13.38473        31.27814        -1.92790
O         17.34792        31.06784         1.86485
H         16.62414        30.50573         2.23479
O         23.24275        41.67951         3.27789
H         22.67614        40.91717         3.54507
O         19.81206        34.02649         1.63178
H         19.54841        33.17500         2.04193
O         30.63191        24.03682        -1.71027
H         31.52631        23.67397        -1.93107
O         30.44121        23.79488         1.94984
H         30.42360        23.00713         2.53728
O         27.80148        31.38029         2.19273
H         28.65938        31.32594         2.66826
O         19.05150        26.80325        -2.46584
H         19.77532        26.48386        -3.04499
O         21.85030        39.30535         2.85584
H         20.98636        38.87526         3.03746
O         19.20040        31.34360        -2.30558
H         19.99189        31.05552        -2.80941
O         24.96054        14.03013        -2.37019
H         24.31594        13.59250        -2.96552
O         34.90164        25.53239        -1.74155
H         34.64559        24.70614        -2.21171
O         23.21679        19.99642        -2.79390
H         23.42225        20.85017        -3.25083
O         20.77620        53.35886         2.43692
H         20.24992        52.63825         2.87376
O         19.22675        43.82435         3.27163
H         19.28118        44.73096         3.65087
O         24.32141        22.43683        -3.19108
H         25.20286        22.30054        -3.60691
O         30.95825        29.01677        -1.54972
H         31.30445        29.90729        -1.77010
O          8.42705        31.34585        -1.27810
H          7.65677        31.76373        -1.71894
O         15.85770        23.19317         1.46476
H         16.01328        22.27917         1.78374
O         10.83292        37.17818        -1.62727
H         10.80351        38.03384        -2.10434
O         19.81966        57.70350         0.86717
H         20.24994        57.32606         1.67173
O         21.62234        43.86870        -0.50737
H         22.35694        43.39676        -0.95436
O         17.27250         9.62885         0.41810
H         17.26552         9.50615        -0.55321
O         16.22874        36.15053        -1.34363
H         15.39975        36.09794        -1.87611
O         19.79735         5.79090         2.07078
H         20.01972         6.23007         2.91667
O         16.17199        27.79913        -2.43082
H         15.28351        27.90170        -2.85432
O         20.69090        18.91411        -2.87509
H         20.57177        17.99706        -3.20265
O         18.26978        24.75245         1.30233
H         19.01143        24.22722         1.67904
O         23.81751        23.57226         0.22924
H         23.05455        23.61232         0.84559
O         33.78114        31.11603        -0.75563
H         34.49902        30.96210        -1.40814
O         26.13713        48.73434         2.57751
H         25.49876        49.27511         3.09056
O          7.08604        31.09512         2.12339
H          6.34136        30.58061         2.49644
O         14.71465        13.99332        -1.31743
H         15.16647        13.95597        -2.18845
H          4.89914        31.13807         0.05977
H          4.96079        33.55009        -0.34209
H          7.45203        26.75415         0.19110
H          6.17715        28.92997         0.16971
H          6.10898        35.74226        -0.11301
H          7.30512        37.96015         0.08468
H          9.95109        22.51187        -0.06180
H          8.68519        24.65327         0.16869
H          8.53999        40.16311         0.04173
H          9.77277        42.27754        -0.24710
H         12.43365        18.28222        -0.16540
H         11.19086        20.40409        -0.17369
H         11.09019        44.51232        -0.45147
H         12.48837        46.65269        -0.76655
H         15.28907        14.21341         0.65158
H         13.66673        16.16393        -0.10906
H         13.99595        48.52361        -1.40312
H         15.64061        50.36099        -1.96960
H         18.33971        10.59877         1.87550
H         16.27026        11.92092         0.50020
H         17.36821        52.28836        -2.23655
H         18.62519        54.35881        -2.32572
H         20.53536         5.55328         0.17208
H         18.77651         7.79819         1.14201
H         19.43253        56.72919        -1.99763
H         19.96803        59.07312        -1.51443
H         23.45772         3.04613         3.55622
H         21.29229         3.92404         2.70680
H         23.43021        61.74835        -3.33389
H         21.24606        60.78646        -2.67816
H         25.60320         4.11497         2.96900
H         26.85072         6.04640         1.84965
H         26.76808        58.97471        -1.26908
H         25.56868        60.74826        -2.56857
H         28.01871         7.90881         0.90551
H         28.59329        10.01344        -1.52307
H         29.15400        55.05978         0.05089
H         27.93782        57.10415        -0.38644
H         30.20738        11.78018         0.74106
H         31.50184        14.26271         1.26109
H         31.70724        50.75987         0.15286
H         30.35735        52.96065         0.01006
H         32.63850        16.41317         1.11293
H         33.77586        18.38805         1.13438
H         34.05493        46.33536        -0.29783
H         32.88050        48.57920        -0.10784
H         35.31178        20.46520         0.87076
H         36.55500        22.64273         0.80679
H         36.28282        42.17320        -1.39692
H         35.07824        44.30546        -0.60667
H         37.81665        24.74347         0.74274
H         39.00264        26.84550         0.08778
H         38.38401        37.70185        -2.34298
H         37.32008        39.92234        -1.90430
H         40.06055        28.91558        -1.08788
H         41.08496        31.04704        -1.96395
H         40.91227        33.42855        -2.51915
H         39.60441        35.59449        -2.43234
