         424
 CSIRO Nanostructure Databank - Neutral Graphene Oxide Data Set
C          1.29492         2.19671         0.79535
C          1.26965         3.53002         1.12899
C          2.50212         1.46898         0.73913
C          2.51664         4.22507         1.59057
C          1.38701         6.45412         1.68302
C          1.35012         7.83002         1.52521
C          2.53397         5.72174         1.33460
C          2.47717         8.53686         1.05107
C          1.30848        10.71673         1.18715
C          1.29978        12.12339         1.09435
C          2.43045         9.97216         0.87127
C          2.46850        12.84954         0.83170
C          1.30225        15.04360         1.19546
C          1.33186        16.42480         1.33769
C          2.48105        14.29843         0.96558
C          2.54973        17.12999         1.26663
C          2.60440        18.55686         1.42513
C          3.75105         2.14543         0.87373
C          3.76380         3.52056         1.15111
C          4.98867         1.43851         0.70697
C          5.03146         4.30842         1.24381
C          3.68060         6.40655         0.88494
C          3.67079         7.81541         0.76461
C          4.89211         5.61852         0.43621
C          4.89275         8.54951         0.41245
C          3.56722        10.66859         0.16323
C          3.67785        12.14547         0.50510
C          4.87081         9.91135         0.23463
C          4.89405        12.82901         0.36691
C          3.71948        14.98738         0.86516
C          3.75465        16.40452         1.02838
C          4.93039        14.27234         0.57334
C          4.99618        17.10143         0.96513
C          3.79156        19.23005         1.35578
C          5.02917        18.53179         1.12581
C          6.22452         2.09645         0.69860
C          6.26110         3.54923         0.80755
C          7.41933         1.38628         0.43721
C          7.41386         4.24623         0.55385
C          6.18128         6.41412         0.45254
C          6.15602         7.80757         0.32767
C          7.41416         5.69863         0.43827
C          7.38691         8.52475         0.14695
C          6.08375        10.65241        -0.26578
C          6.12690        12.12112         0.11387
C          7.38419         9.93638        -0.00845
C          7.34748        12.78910         0.06445
C          6.13566        14.97621         0.48763
C          6.19119        16.37987         0.72512
C          7.38714        14.29752        -0.01279
C          7.45021        17.08316         0.70108
C          6.24344        19.21257         1.04439
C          7.46885        18.51606         0.84211
C          8.66828         2.04061         0.29837
C          8.73597         3.52276         0.60471
C          9.82764         1.33245         0.05056
C          9.85336         4.27236        -0.06868
C          8.63007         6.39151         0.21895
C          8.62135         7.80748         0.08393
C          9.86444         5.65357        -0.02314
C          9.83909         8.52060        -0.17939
C          8.59307        10.64916        -0.09817
C          8.59212        12.09096        -0.07566
C          9.83341         9.93546        -0.21661
C          9.83572        12.79865        -0.09367
C          8.62843        14.87047         0.66223
C          8.66134        16.37780         0.57609
C          9.88103        14.20000         0.15595
C          9.89209        17.06185         0.52185
C          8.69927        19.19667         0.81076
C          9.91632        18.49978         0.63704
C         11.08841         2.00825        -0.31682
C         11.06251         3.53304        -0.46904
C         12.38971         1.40948        -0.03388
C         12.34380         4.24757        -0.43464
C         11.08148         6.38469        -0.33211
C         11.06307         7.80716        -0.39349
C         12.30134         5.69279        -0.49940
C         12.25701         8.52202        -0.71331
C         11.05298        10.64856        -0.46015
C         11.06708        12.09762        -0.33973
C         12.22790         9.94779        -0.75948
C         12.28764        12.79710        -0.35076
C         11.08721        14.91441         0.11595
C         11.11693        16.34309         0.32334
C         12.32219        14.21779        -0.12207
C         12.34166        17.04191         0.25187
C         11.15660        19.17672         0.60086
C         12.36736        18.47868         0.41305
C         13.55587         2.13443        -0.10973
C         13.54093         3.55294        -0.34850
C         14.86404         1.45601         0.24313
C         14.81666         4.36450        -0.24459
C         13.48939         6.40868        -0.82157
C         13.46514         7.78603        -0.95823
C         14.72827         5.60643        -1.14614
C         14.69176         8.51436        -1.45490
C         13.45268        10.71388        -1.22372
C         13.52572        12.11238        -0.65143
C         14.71990         9.91783        -0.85346
C         14.73846        12.76039        -0.61977
C         13.54000        14.91905        -0.12016
C         13.56518        16.33449         0.02430
C         14.84032        14.16184        -0.06922
C         14.79449        17.05326        -0.09133
C         13.60508        19.15964         0.36190
C         14.81199        18.47751         0.09447
C         16.09794         2.16985        -0.27167
C         16.07386         3.56766        -0.52177
C         17.28688         1.45953        -0.38333
C         17.25513         4.24734        -0.87129
C         16.01123         6.40287        -1.08515
C         15.99863         7.79149        -1.21512
C         17.23893         5.70010        -1.06710
C         17.20982         8.51884        -1.35393
C         15.99452        10.67080        -1.13968
C         15.97792        12.07491        -0.95837
C         17.19548         9.98011        -1.35394
C         17.18226        12.80615        -1.06994
C         16.01383        14.93774        -0.61559
C         15.99998        16.38052        -0.48224
C         17.14654        14.25269        -1.00629
C         17.17131        17.12769        -0.68447
C         16.04160        19.18446        -0.00874
C         17.22327        18.53063        -0.38486
C         18.51263         2.12097        -0.67618
C         18.48737         3.52893        -0.93028
C         19.75286         1.43762        -0.65158
C         19.72321         4.21546        -1.13244
C         18.43105         6.41465        -1.32545
C         18.42803         7.81603        -1.48534
C         19.68470         5.65009        -1.51146
C         19.66472         8.55826        -1.97654
C         18.42544        10.70790        -1.42939
C         18.41206        12.12496        -1.30285
C         19.67149        10.02838        -1.62418
C         19.65248        12.85254        -1.36402
C         18.36179        14.97771        -1.41586
C         18.37350        16.48784        -1.22774
C         19.65397        14.27517        -1.38458
C         19.67830        17.15869        -1.11541
C         18.47147        19.22568        -0.49102
C         19.67339        18.58352        -0.80977
C         20.97173         2.13351        -0.76840
C         20.93742         3.55022        -1.00747
C         22.23073         1.46493        -0.64950
C         22.21136         4.32755        -0.78620
C         20.96930         6.41368        -1.58723
C         20.96419         7.87947        -1.60677
C         22.23646         5.72349        -1.34031
C         22.15474         8.56185        -1.60226
C         20.87148        10.72672        -1.60193
C         20.88212        12.15184        -1.45744
C         22.16561        10.02907        -1.96387
C         22.11685        12.87860        -1.40840
C         20.85905        15.00293        -1.40260
C         20.84814        16.45249        -1.31769
C         22.10477        14.28919        -1.34913
C         22.13399        17.20301        -1.57058
C         20.91522        19.27354        -0.77836
C         22.13008        18.61959        -1.02898
C         23.46748         2.13150        -0.78124
C         23.48582         3.56163        -1.01109
C         24.70255         1.44127        -0.72479
C         24.67351         4.24312        -1.18564
C         23.41091         6.42318        -1.44214
C         23.41618         7.86050        -1.52453
C         24.69294         5.67470        -1.67966
C         24.62904         8.57395        -1.38085
C         23.39851        10.74079        -1.45800
C         23.36448        12.14330        -1.30072
C         24.59587        10.01651        -1.24741
C         24.55758        12.84190        -0.95521
C         23.34625        15.01825        -1.17009
C         23.37424        16.43125        -1.19209
C         24.55160        14.29725        -0.93004
C         24.58116        17.13411        -1.00590
C         23.35395        19.28440        -0.89413
C         24.59530        18.58655        -0.93881
C         25.93683         2.12399        -0.81250
C         25.92908         3.56249        -1.03120
C         27.16765         1.43498        -0.76499
C         27.12221         4.29703        -1.03799
C         25.93091         6.44911        -1.31753
C         25.88242         7.87708        -1.24223
C         27.11958         5.72031        -1.16795
C         27.06287         8.62074        -0.91928
C         25.77504        10.70998        -0.82258
C         25.73229        12.11173        -0.67551
C         27.01609         9.99193        -0.62820
C         26.90240        12.84889        -0.07784
C         25.76213        15.00538        -0.79040
C         25.80244        16.41802        -0.83861
C         27.01793        14.23601        -0.66720
C         27.04197        17.13696        -0.66212
C         25.80759        19.26431        -0.78385
C         27.04313        18.56950        -0.63948
C         28.41935         2.11763        -0.84680
C         28.39143         3.60785        -0.59094
C         29.60835         1.43775        -0.96904
C         29.64563         4.33963        -0.98666
C         28.40010         6.44912        -1.16456
C         28.37574         7.94875        -1.00423
C         29.66037         5.72031        -0.91713
C         29.57403         8.60702        -0.44013
C         28.22789        10.68576        -0.21304
C         28.21189        12.09883        -0.06187
C         29.44659         9.96106        -0.04304
C         29.39110        12.83392         0.19704
C         28.29913        14.97697        -0.47334
C         28.25609        16.44977        -0.40966
C         29.46001        14.24652         0.07952
C         29.41338        17.14886        -0.05300
C         28.26128        19.26203        -0.44397
C         29.45374        18.57641        -0.14249
C         30.91032         2.09603        -1.34772
C         30.89421         3.60949        -1.16274
C         32.14909         1.44448        -0.77484
C         32.14578         4.35610        -0.67205
C         30.85021         6.46655        -0.57016
C         30.77407         7.88697        -0.26025
C         31.99481         5.74033        -0.23807
C         31.95562         8.55023         0.27116
C         30.60593        10.61179         0.58179
C         30.58491        12.14657         0.69965
C         31.91617         9.95792         0.58303
C         31.87222        12.85285         0.75175
C         30.63435        14.94556         0.40054
C         30.58062        16.41699         0.47201
C         31.86356        14.26719         0.66620
C         31.88486        17.17377         0.64069
C         30.71733        19.25382        -0.05624
C         31.91619        18.58755         0.19637
C         33.30333         2.12096        -0.43395
C         33.32335         3.56648        -0.26417
C         34.52272         1.40861        -0.12771
C         34.43588         4.20466         0.24601
C         33.09113         6.37522         0.49341
C         33.11167         7.83409         0.56612
C         34.36840         5.60803         0.70882
C         34.26368         8.46908         1.30478
C         33.08643        10.67584         0.92327
C         33.07450        12.12746         0.94561
C         34.32743         9.96280         1.09861
C         34.30052        12.85527         1.07808
C         33.10891        15.00340         0.78049
C         33.12976        16.39272         0.67892
C         34.34076        14.25397         0.96185
C         34.39656        17.17571         0.89414
C         33.17756        19.19964        -0.00630
C         34.39302        18.52508         0.20678
C         35.69137         2.06780         0.19676
C         35.69359         3.51352         0.36034
C         36.91255         1.35467         0.50278
C         36.86670         4.22625         0.58430
C         35.62432         6.37113         0.88091
C         35.58667         7.75670         1.07788
C         36.86151         5.65583         0.80864
C         36.80463         8.48644         1.20791
C         35.54486        10.62834         1.25128
C         35.53580        12.10250         1.38404
C         36.79618         9.92281         1.29517
C         36.85801        12.83880         1.34175
C         35.60855        14.96501         0.87773
C         35.63625        16.35727         0.64082
C         36.84977        14.26150         0.94145
C         36.84884        17.01507         0.34322
C         35.61437        19.12632        -0.09863
C         36.85344        18.43145         0.02536
C         38.08885         2.02216         0.71622
C         38.17866         3.49956         0.40984
C         39.29174         1.33926         1.13462
C         39.33671         4.18563         1.07956
C         38.06048         6.37125         1.01893
C         38.03757         7.76740         1.21731
C         39.40979         5.68281         0.92282
C         39.28934         8.49115         1.36917
C         38.04770        10.63213         1.25553
C         38.09779        12.05146         1.17962
C         39.28879         9.91034         1.26935
C         39.32102        12.72622         1.00267
C         38.05709        14.91382         0.68444
C         38.07095        16.28831         0.33328
C         39.38016        14.24372         0.97534
C         39.31259        16.96086         0.03198
C         38.06707        19.07384        -0.22577
C         39.30023        18.36672        -0.21610
C         40.41122         2.02775         1.49455
C         40.43550         3.47974         1.49367
C         41.64169         4.19336         1.91718
C         40.37262         6.31991         1.92813
C         40.49611         7.79373         1.59340
C         41.65614         5.53314         2.05592
C         41.71190         8.49616         1.58929
C         40.53759        10.60602         1.21664
C         40.54146        12.02740         1.01885
C         41.73725         9.86342         1.35386
C         41.77835        12.77764         0.85119
C         40.48097        14.72227         0.01989
C         40.53478        16.24002        -0.05801
C         41.78091        14.05009         0.40102
C         41.70793        16.92507        -0.36722
C         40.52260        19.03424        -0.49766
C         41.70453        18.32142        -0.56188
O         30.30517        11.28908         1.84985
O         28.57106         7.33921        -2.33329
O         31.81448         4.22455        -2.11529
O         36.18810        12.57687         2.62431
O         33.40949         5.74009         1.83955
O         10.93896         2.65117        -1.64296
O         31.00210        16.92924         1.79085
O         27.91407        14.40612        -1.79970
O         18.17264        15.87412        -2.55805
O         20.28195         5.87269        -2.85116
O          4.66263         5.21735        -0.94393
H          4.64057         6.02729        -1.49562
O         24.74268         5.55788        -3.15155
H         25.65487         5.29436        -3.39889
O         14.58284         5.17636        -2.52937
H         15.34208         4.59249        -2.74273
O          5.93950        10.66412        -1.74022
H          4.97144        10.74114        -1.92766
O         39.71222         6.23995         3.22502
H         40.29340         6.66348         3.89017
O         39.92466         5.92751        -0.41477
H         39.40543         5.34768        -1.02320
O         15.13467        13.99933         1.37902
H         14.31094        13.68380         1.80842
O         33.96465         8.28806         2.73629
H         33.74969         7.32807         2.84826
O         26.56112        13.08315         1.33240
H         26.58675        12.22004         1.79699
O         31.03265         1.85085        -2.79098
H         31.60409         2.57463        -3.14048
O         19.63177         8.49939        -3.44619
H         19.75360         7.54335        -3.67651
O         39.77273        14.67725         2.30698
H         39.07460        14.39583         2.93502
O          8.52008        14.53445         2.08000
H          9.28728        14.93132         2.54289
O          3.19566        10.64898        -1.28586
H          2.33994        11.12484        -1.36330
O         38.48332         3.59633        -1.04717
H         39.20886         2.95987        -1.22705
O         14.57763         8.59385        -2.90925
H         14.49724         7.67429        -3.24591
O         28.37104         3.72202         0.88519
H         27.61139         3.18886         1.20465
O          2.53179         4.11756         3.09376
H          2.40102         3.16767         3.30735
O         40.10925        14.25429        -1.30760
H         40.79131        14.56193        -1.93995
O         34.41593        17.49348         2.33395
H         34.27216        16.65601         2.82431
O          5.23800         4.67114         2.64289
H          4.36044         4.62875         3.09835
O          7.50486        14.62552        -1.42874
H          6.80826        14.13501        -1.91334
O         22.22422        10.05925        -3.42696
H         21.40526         9.61112        -3.74991
O         22.19943         4.55707         0.68740
H         22.17236         3.67215         1.11241
O         22.20492        17.34452        -3.03457
H         21.34595        17.70903        -3.33715
O         14.91554         4.86287         1.12037
H         15.00641         4.09414         1.72053
O         13.34165        10.90676        -2.65282
H         13.58940        10.05837        -3.09522
O          9.11217         3.55513         2.03997
H          8.84728         4.43057         2.39599
O         14.85456         0.08789        -0.17242
H         14.71714         0.06369        -1.14137
O         14.69447         9.71238         0.58636
H         14.84563        10.57985         1.01775
H          0.35323         1.68211         0.55323
H          0.31195         4.06729         1.16760
H          2.49079         0.39652         0.50291
H          0.50688         5.93377         2.08439
H          0.42589         8.36306         1.78234
H          0.40274        10.23159         1.57524
H          0.37282        12.64533         1.36270
H          0.33061        14.53566         1.25684
H          0.39710        16.97661         1.51314
H          1.66591        19.10191         1.60409
H          4.95620         0.35045         0.54703
H          3.81957        20.32288         1.47680
H          7.36656         0.29964         0.26818
H          6.26266        20.30737         1.15348
H          9.79011         0.23291        -0.01003
H          8.71645        20.29039         0.92896
H         12.42855         0.36830         0.32086
H         11.17603        20.27167         0.70640
H         14.94184         1.43767         1.36941
H         13.62230        20.25178         0.49390
H         17.28755         0.37923        -0.17665
H         16.05473        20.26792         0.18131
H         19.76441         0.35296        -0.46844
H         18.49041        20.30161        -0.26071
H         22.23049         0.37797        -0.47944
H         20.92802        20.33221        -0.47598
H         24.70267         0.35046        -0.58272
H         23.36034        20.36013        -0.65817
H         27.16239         0.33439        -0.75605
H         25.80612        20.36301        -0.72261
H         29.58116         0.33891        -1.04601
H         28.26852        20.36077        -0.49744
H         32.19251         0.34617        -0.84783
H         30.74819        20.32452        -0.30997
H         34.52096         0.31101        -0.20719
H         33.20637        20.22986        -0.39488
H         36.86955         0.26033         0.61731
H         35.62441        20.15367        -0.49473
H         39.26936         0.24117         1.20182
H         38.07198        20.14950        -0.45759
H         41.31010         1.48955         1.82849
H         42.54964         3.59996         2.10470
H         42.57065         6.03661         2.40479
H         42.66048         7.96222         1.73990
H         42.70889        10.37291         1.31368
H         42.73639        12.28463         1.06924
H         42.74000        14.56664         0.24991
H         42.66126        16.38676        -0.46347
H         40.51425        20.11914        -0.67541
H         42.64938        18.83599        -0.78576
