         261
 CSIRO Nanostructure Databank - Neutral Graphene Oxide Data Set
C        -11.32465         0.63488        -0.26224
C        -10.13133         1.51228        -0.43687
C         -8.82323         0.78240        -0.57082
C         -7.51717         1.51586        -0.44718
C         -6.30009         0.75302        -0.00898
C         -5.06794         1.49881         0.43086
C         -3.77565         0.74892         0.37786
C         -2.48184         1.45591         0.11996
C         -1.19030         0.72564         0.26789
C         -0.05315         1.46233         0.97073
C          1.31599         0.79074         0.78424
C          2.56492         1.57335         1.15281
C          3.86802         0.83016         0.99377
C          4.98985         1.50896         0.25457
C          6.24575         0.76319        -0.09571
C          7.51495         1.51134        -0.45552
C          8.82246         0.81135        -0.21728
C         10.09023         1.54925        -0.65544
C         11.28312         0.72212        -0.19510
C        -10.07899         2.93214        -0.03560
C         -8.90356         3.67341        -0.04545
C         -7.57842         3.04791        -0.45107
C         -6.39488         3.72508         0.21104
C         -5.10581         3.00251         0.36930
C         -3.83979         3.68603        -0.05759
C         -2.53762         2.94894        -0.02746
C         -1.20518         3.66628        -0.03285
C         -0.05090         3.00408         0.70958
C          1.20383         3.80950         0.92704
C          2.54206         3.10226         1.03232
C          3.82013         3.81138         0.64855
C          4.97803         3.01241         0.08780
C          6.21077         3.73610        -0.39194
C          7.51909         3.01103        -0.56546
C          8.78547         3.78764        -0.42960
C         10.06669         3.00821        -0.10632
C         -8.88619         5.08552         0.17108
C         -7.70589         5.87774         0.08957
C         -6.44651         5.13384        -0.33748
C         -5.13373         5.91957        -0.20405
C         -3.82682         5.18268        -0.13697
C         -2.51261         5.87963         0.09480
C         -1.22612         5.14912        -0.27766
C          0.01182         5.96573        -0.01251
C          1.21088         5.28771         0.58155
C          2.52812         6.01938         0.50778
C          3.74503         5.23310         0.15952
C          4.96560         5.91801        -0.35729
C          6.31165         5.24196        -0.02743
C          7.53239         5.94863        -0.61275
C          8.76369         5.14844        -0.54451
C         -7.71190         7.26821         0.19198
C         -6.47206         8.03292         0.47898
C         -5.16634         7.28695         0.41867
C         -3.87403         8.06270         0.53031
C         -2.56974         7.36413         0.21080
C         -1.68013         8.33938        -0.53840
C          0.42782         7.01339        -1.02909
C          1.43911         8.13906        -0.67366
C          2.54390         7.46687         0.16673
C          3.85194         8.17811        -0.02198
C          4.99572         7.40443        -0.58945
C          6.26654         8.11105        -0.90269
C          7.52065         7.29262        -0.87339
C         -6.35978         9.51165         0.38693
C         -5.19239        10.20295         0.40708
C         -3.85873         9.57223         0.60063
C         -2.54690        10.30075         0.47926
C         -1.36649         9.64120         0.14032
C         -0.03983        10.17446         0.21037
C          1.20824         9.54990        -0.09597
C          2.41476        10.27023        -0.00780
C          3.77948         9.66211        -0.13330
C          5.03707        10.30142        -0.63305
C          6.18708         9.60752        -0.83104
C        -11.30322        -0.68041        -0.55993
C        -10.04162        -1.46057        -0.88988
C         -8.85421        -0.69720        -0.32535
C         -7.62942        -1.45720         0.02640
C         -6.34870        -0.71945         0.43650
C         -5.07527        -1.45249         0.01254
C         -3.77328        -0.72660         0.09746
C         -2.56016        -1.46267         0.71576
C         -1.23382        -0.78097         0.38502
C          0.04625        -1.51835         0.59704
C          1.33905        -0.71773         0.68895
C          2.59554        -1.47042         1.04819
C          3.88056        -0.70202         1.01714
C          5.15512        -1.44151         0.69489
C          6.37418        -0.69315         0.26793
C          7.54021        -1.39546        -0.37281
C          8.83768        -0.67947        -0.19930
C         10.08299        -1.41399        -0.68792
C         11.28588        -0.62296        -0.20939
C        -10.06713        -2.90306        -0.40745
C         -8.87979        -3.64690        -0.30603
C         -7.55266        -2.88931        -0.54290
C         -6.35223        -3.68193         0.02393
C         -5.03514        -2.94170         0.35759
C         -3.74624        -3.61538        -0.14062
C         -2.48122        -2.91450         0.23241
C         -1.29056        -3.70703         0.71218
C         -0.01371        -2.97294         1.00818
C          1.28467        -3.73234         1.07204
C          2.58300        -2.98976         1.03676
C          3.85585        -3.72479         0.67829
C          5.03462        -2.87644         0.24199
C          6.23065        -3.59303        -0.31410
C          7.54637        -2.88176        -0.50489
C          8.83980        -3.59680        -0.31756
C         10.00330        -2.89506        -0.31130
C         -8.82113        -5.03805        -0.28571
C         -7.62307        -5.77870        -0.85307
C         -6.33372        -5.13477        -0.28837
C         -5.03529        -5.82167        -0.61507
C         -3.73803        -5.09238        -0.45630
C         -2.42539        -5.84160        -0.31276
C         -1.23554        -5.16603         0.32059
C         -0.04283        -5.96837         0.78614
C          1.25742        -5.23436         0.89140
C          2.43068        -5.87054         0.18902
C          3.76068        -5.15637         0.22339
C          4.88641        -5.71320        -0.67327
C          6.20963        -5.09754        -0.03089
C          7.50578        -5.84069        -0.33133
C          8.80469        -5.09388         0.00482
C         -7.57165        -7.24037        -0.48382
C         -6.39849        -8.04750        -0.75360
C         -5.05110        -7.31537        -0.80746
C         -3.77330        -8.07804        -0.56475
C         -2.48233        -7.35101        -0.37186
C         -1.33809        -8.15268         0.19824
C         -0.07057        -7.47100         0.58452
C          1.29856        -8.18375         0.53437
C          2.35565        -7.31369        -0.20163
C          3.61250        -8.00799        -0.66066
C          4.91601        -7.23725        -0.76130
C          6.22720        -7.96939        -0.67589
C          7.48511        -7.18599        -0.47229
C         -6.31089        -9.51230        -0.48676
C         -5.15761       -10.15766        -0.23401
C         -3.85230        -9.45753         0.08639
C         -2.57114       -10.23561        -0.16162
C         -1.36580        -9.62305        -0.07620
C         -0.06753       -10.40890         0.10641
C          1.22565        -9.61203        -0.02475
C          2.38701       -10.24221        -0.32184
C          3.66123        -9.50707        -0.59012
C          4.99172       -10.11349        -0.34172
C          6.14925        -9.41406        -0.34252
O         -5.87440         7.36715         1.67815
O         -6.61282        -4.68034         1.06564
O          1.95687        -6.27773        -1.14393
O         -1.35167        -5.29867        -1.13483
O         -1.59337         8.25630        -1.75018
O          8.92276         0.08189         1.03917
O          0.60239        -5.77094         2.07538
O         -5.70886        -7.68706        -2.02456
O         -0.54433        -1.38763        -0.73724
O          1.51012         0.12868        -0.49514
O         -1.01089         4.23876        -1.37111
O          4.16545        -4.84355         1.57796
O         -6.56083         0.97478        -1.41477
O         -7.33136         3.49981        -1.84193
O         -4.37623        -1.06085        -1.18200
O          4.02705         5.32103        -1.28045
O         -1.01795        -7.96015         1.61178
O          0.24828         3.61805         2.00714
O          6.21432        -1.11556         1.65184
O         -3.29474         3.14315        -1.28079
O          5.62601        -7.62878        -1.98272
O          2.07898         8.41660        -1.93787
O          5.21250         3.34749        -1.32384
O         -2.85191        -7.91516        -1.67368
O          2.02115        -3.43736         2.30229
O          5.16061         0.88590        -1.06104
O         -5.86691         3.53463         1.52786
O         -2.22389         6.54578         1.36555
O          2.50055         7.04547         1.55329
O          3.40328         1.26565         2.29583
O         -8.64637        -1.16390         1.05625
O         -4.40846         1.06186         1.65691
O         -3.79166         8.72969         1.81593
O          5.32086         7.67675        -1.97834
O          7.49155         2.15298        -1.76619
O         -6.68052         4.84090        -1.76676
O         -2.89366        -2.99351        -1.14572
O          0.30227         6.11385         1.37977
O         -1.66758         1.05221        -1.04766
O          7.44073        -1.99543        -1.69260
O         -4.36309        -5.24047        -1.77340
O         -4.34473         5.75505        -1.39918
O         -9.51718         1.21761        -1.76053
O          6.12450        -5.26082         1.35688
O          6.45115         5.27199         1.35258
O          5.21879        -3.03606        -1.19472
O          3.44893         3.68255         2.02879
O         -0.93217        -3.36033         2.07399
O          1.78451        -8.39759         1.82285
O         -7.43404        -2.83715        -1.93470
O          3.27362        -1.10529         2.27979
O          3.45274        -8.80272        -1.87465
O          4.14493         8.96913         1.15598
O         -3.92386        -9.20866         1.52692
H         -3.01198        -9.10610         1.87993
O         10.13156         1.61556        -2.08941
H          9.23496         1.87319        -2.41258
O         10.08172        -1.36900        -2.13508
H          9.18987        -1.66080        -2.44063
O          0.32074         6.70562        -2.20312
H          1.58626         7.90850        -2.63313
O         -6.31616        -0.74701         1.88366
H         -7.24686        -0.64811         2.19869
O         -4.89375        -3.01217         1.80465
H         -5.58893        -2.42665         2.20191
O          9.91666        -5.75396        -0.58765
H          9.94379        -5.53582        -1.54160
O         -7.65892        -5.56695        -2.27255
H         -7.51090        -4.58346        -2.42527
O         -9.86330        -1.69573        -2.29786
H         -8.94034        -2.10182        -2.40521
O         -0.39237         1.25457         2.35642
H          0.01086         1.98037         2.89061
O         -0.04265       -11.54036        -0.75876
H         -0.01798       -11.22632        -1.68599
O          4.66924        -5.24349        -1.98358
H          4.95733        -5.94222        -2.61569
O         10.16828         2.92335         1.31695
H         10.02642         3.81162         1.70348
O         -2.71796        -1.37855         2.13333
H         -3.46747        -1.96429         2.40158
H         12.18342        -1.17377         0.11266
H         12.18073         1.26305         0.14200
H         10.95083         3.57399        -0.51995
H          9.72242         5.69487        -0.53620
H          8.46362         7.79881        -1.13840
H          7.09834        10.16801        -1.09340
H          5.05842        11.39943        -0.71457
H          2.36387        11.34348         0.24339
H          0.03883        11.19444         0.62565
H         -2.51419        11.34344         0.83667
H         -5.22383        11.29466         0.27028
H         -7.29521        10.06799         0.22061
H         -8.67573         7.78943         0.30825
H         -9.83673         5.58522         0.41403
H        -11.02111         3.42923         0.24349
H        -12.27375         1.11313         0.02509
H        -12.24003        -1.25479        -0.48841
H        -10.99073        -3.45953        -0.64760
H         -9.71058        -5.61332         0.02432
H         -8.34579        -7.64873         0.18490
H         -7.23928       -10.09262        -0.60377
H         -5.17843       -11.25100        -0.10632
H         -2.62277       -11.33065        -0.26418
H         -0.09528       -10.80886         1.15795
H          2.35990       -11.30855        -0.60200
H          5.01281       -11.17860        -0.06496
H          7.08857        -9.92566        -0.08355
H          8.44073        -7.72958        -0.54853
H          8.92585        -5.19388         1.11998
H         10.94588        -3.44379        -0.15187
