         404
 CSIRO Nanostructure Databank - Neutral Graphene Oxide Data Set
C          1.22417         2.08079         0.53953
C          1.23285         3.50992         0.67200
C          2.36990         1.38753         0.25789
C          2.35713         4.25346         0.41308
C          1.20511         6.44622         0.73489
C          1.22638         7.81818         0.88598
C          2.40235         5.70246         0.57749
C          2.44987         8.53090         0.93735
C          1.30513        10.73449         1.32009
C          1.36427        12.08982         1.57804
C          2.48357         9.96007         1.16043
C          2.60840        12.75751         1.74385
C          1.58701        15.00872         1.82902
C          1.62654        16.42143         2.04462
C          2.66294        14.18848         2.05302
C          2.77949        17.06146         2.43717
C          2.86298        18.49952         2.48531
C          3.61251         2.08098         0.04919
C          3.55962         3.57286        -0.20215
C          4.80424         1.40275        -0.03006
C          4.86301         4.26979         0.08864
C          3.63852         6.38878         0.58570
C          3.66940         7.80022         0.80818
C          4.88777         5.65535         0.37412
C          4.91876         8.50378         0.87806
C          3.73641        10.62525         1.25945
C          3.78583        12.00539         1.58680
C          4.95763         9.87711         1.06159
C          5.13147        12.59840         1.91911
C          3.94263        14.73348         2.67191
C          3.99849        16.27185         2.73892
C          5.14422        14.11197         1.97571
C          5.31912        17.01195         2.65849
C          4.05616        19.16403         2.44848
C          5.31296        18.46411         2.34539
C          6.07000         2.08512        -0.09437
C          6.07018         3.54378         0.01032
C          7.25615         1.37339        -0.17204
C          7.29955         4.23104         0.07370
C          6.12519         6.33349         0.41910
C          6.21980         7.74771         0.92523
C          7.33394         5.64083         0.17970
C          7.38532         8.51812         0.33332
C          6.21667        10.60566         0.89942
C          6.24380        11.95795         1.13052
C          7.39094         9.90817         0.38576
C          7.40281        12.75298         0.71168
C          6.44565        14.74628         2.03314
C          6.57871        16.25084         2.36989
C          7.51561        14.19280         1.14470
C          7.73398        16.97211         1.82997
C          6.47875        19.10670         2.00787
C          7.71768        18.39660         1.77441
C          8.53797         2.01296        -0.11492
C          8.55461         3.46692         0.14135
C          9.73527         1.33114        -0.22742
C          9.85766         4.21978        -0.02318
C          8.56816         6.38347        -0.05826
C          8.53632         7.78569        -0.10230
C          9.80565         5.67653        -0.29746
C          9.68543         8.53521        -0.63774
C          8.59133        10.67425         0.06138
C          8.60337        12.05075         0.24354
C          9.78682         9.98588        -0.38375
C          9.78435        12.86309        -0.07596
C          8.83307        14.86726         1.08940
C          8.89089        16.26043         1.39719
C          9.93144        14.21782         0.50276
C         10.08876        16.97685         1.10288
C          8.90013        19.09056         1.48348
C         10.10600        18.40096         1.20617
C         10.99940         2.01586        -0.34815
C         11.03790         3.44058        -0.42590
C         12.21890         1.32077        -0.42205
C         12.21529         4.10489        -0.81119
C         10.97537         6.32953        -0.63147
C         10.97720         7.76776        -0.94075
C         12.25376         5.58589        -0.69356
C         12.24958         8.51831        -0.97916
C         11.00424        10.64102        -0.54797
C         11.06151        12.11337        -0.47981
C         12.24664         9.93993        -0.82236
C         12.35436        12.78756        -0.28164
C         11.19062        14.87637         0.40677
C         11.26247        16.27149         0.70654
C         12.38955        14.16433         0.03979
C         12.49229        16.97852         0.56760
C         11.32758        19.08764         0.96506
C         12.49859        18.39613         0.68707
C         13.43422         1.99612        -0.68978
C         13.40549         3.38739        -1.02630
C         14.68682         1.33182        -0.54748
C         14.60703         4.03973        -1.61365
C         13.49974         6.32437        -1.04601
C         13.46999         7.81138        -1.14847
C         14.63256         5.58630        -1.71208
C         14.68454         8.48711        -1.26928
C         13.46813        10.65878        -0.86812
C         13.54933        12.04901        -0.52911
C         14.68038         9.98033        -1.45189
C         14.81195        12.71234        -0.44443
C         13.65356        14.84300         0.09895
C         13.71281        16.24460         0.34880
C         14.86200        14.10434        -0.11435
C         14.97067        16.91182         0.43973
C         13.75251        19.17343         0.38125
C         15.02470        18.36238         0.50182
C         15.89886         1.98697        -0.83258
C         15.86993         3.25638        -1.52839
C         17.15638         1.37680        -0.61370
C         17.06235         3.70077        -2.06839
C         15.87617         6.39212        -1.83157
C         15.91039         7.76739        -1.48226
C         17.06749         5.85118        -2.34413
C         17.16230         8.45783        -1.52636
C         15.99483        10.61542        -1.09189
C         16.03422        11.97208        -0.70978
C         17.19371         9.88351        -1.28263
C         17.29431        12.62261        -0.62574
C         16.11025        14.77249         0.06682
C         16.16880        16.14593         0.37466
C         17.35512        13.98374        -0.04135
C         17.47131        16.81642         0.61045
C         16.20804        19.04495         0.50129
C         17.50024        18.36826         0.64797
C         18.37198         2.02809        -0.92331
C         18.36642         3.29945        -1.61973
C         19.61072         1.45228        -0.59081
C         19.53951         4.08619        -1.76199
C         18.33783         6.37529        -2.10217
C         18.37806         7.74653        -1.73528
C         19.56454         5.50552        -2.40195
C         19.64011         8.44065        -1.74584
C         18.44053        10.56444        -1.29097
C         18.46508        11.95277        -1.02051
C         19.67415         9.84741        -1.56330
C         19.70399        12.72992        -1.28581
C         18.67118        14.70339         0.00402
C         18.71494        16.16650         0.18075
C         19.81056        14.11154        -0.74939
C         19.89964        16.85865         0.00372
C         18.74283        19.02767         0.26918
C         19.92957        18.31541         0.07818
C         20.80308         2.14741        -0.84047
C         20.78349         3.49777        -1.36758
C         22.03290         1.51623        -0.54498
C         22.02605         4.19242        -1.47743
C         20.83819         6.26637        -2.08417
C         20.83896         7.70266        -2.00005
C         22.05054         5.58103        -1.85556
C         22.06359         8.40626        -2.08065
C         20.91256        10.52720        -1.62478
C         20.98561        12.03228        -1.72711
C         22.09960         9.80222        -1.86903
C         22.23257        12.62227        -1.08583
C         21.11904        14.77589        -0.60972
C         21.13568        16.14835        -0.32384
C         22.31786        14.01523        -0.81115
C         22.36439        16.85735        -0.42959
C         21.15968        18.99043        -0.15040
C         22.37037        18.29594        -0.38224
C         23.25256         2.19078        -0.65048
C         23.25934         3.58416        -1.07601
C         24.45295         1.51626        -0.33446
C         24.46196         4.31700        -1.05038
C         23.30990         6.26615        -1.92270
C         23.30498         7.66433        -2.38001
C         24.52070         5.67104        -1.53224
C         24.61365         8.40377        -2.57447
C         23.37381        10.48530        -1.86774
C         23.44678        11.81548        -1.23159
C         24.53964         9.87287        -2.31254
C         24.80274        12.51211        -1.16335
C         23.56414        14.71263        -0.75071
C         23.57592        16.13726        -0.68311
C         24.83873        13.97580        -0.86181
C         24.76107        16.87348        -0.98341
C         23.58078        18.98703        -0.61794
C         24.76912        18.29491        -0.94814
C         25.67784         2.19869        -0.28036
C         25.66038         3.66741        -0.47646
C         26.87080         1.55978         0.06313
C         26.98142         4.39150        -0.52346
C         25.78239         6.40261        -1.66004
C         25.88482         7.66647        -2.24507
C         27.05081         5.83406        -1.01330
C         27.23419         8.19945        -2.57297
C         25.67021        10.70721        -2.58084
C         25.83806        11.98314        -2.06972
C         27.59568         9.54076        -3.00924
C         26.94934        12.81120        -2.46661
C         26.10168        14.71713        -1.18970
C         25.95637        16.16920        -1.46261
C         27.22884        14.04295        -1.90850
C         27.23251        16.91693        -1.74442
C         25.99535        19.00160        -1.17131
C         27.20425        18.36505        -1.45117
C         28.13431         2.21762        -0.02033
C         28.21689         3.57519        -0.46406
C         29.33499         1.52363         0.19158
C         29.45598         4.09896        -0.89512
C         28.23185         6.02025        -1.92284
C         28.25643         7.24620        -2.63427
C         29.35082         5.21587        -1.79705
C         30.28841         8.23456        -2.68794
C         28.81894        10.24349        -2.83342
C         28.85064        11.69594        -2.87235
C         30.08487         9.61140        -2.46999
C         29.87143        12.51657        -2.36271
C         28.52147        14.68775        -2.02854
C         28.53521        16.15814        -1.66926
C         29.72205        13.97409        -2.19992
C         29.79826        16.98738        -1.71397
C         28.42280        19.07388        -1.42457
C         29.69201        18.49314        -1.59882
C         30.59163         2.16546         0.06626
C         30.70632         3.47916        -0.52258
C         31.73379         1.49892         0.54815
C         31.99568         4.13270        -0.51960
C         31.41809         6.10222        -2.00609
C         31.41436         7.53650        -2.18616
C         32.24292         5.44771        -1.10246
C         32.48072         8.31482        -1.68778
C         31.20831        10.39828        -2.05406
C         31.14437        11.86028        -2.03156
C         32.41588         9.72222        -1.73366
C         32.29134        12.59255        -1.74473
C         30.99007        14.75750        -2.19063
C         31.03204        16.22213        -2.03273
C         32.33903        14.04805        -1.96723
C         32.28039        16.81025        -2.11403
C         30.77766        19.34237        -1.29630
C         32.12566        18.96333        -1.50206
C         32.94334         2.19404         0.71485
C         33.06610         3.54374         0.22463
C         33.99069         1.58535         1.44576
C         34.26058         4.27487         0.59328
C         33.53414         6.12991        -0.85108
C         33.67957         7.60320        -1.22671
C         34.47396         5.60504         0.14434
C         34.78439         8.36893        -0.62365
C         33.69183        10.46245        -1.62618
C         33.61837        11.96174        -1.59550
C         34.91319         9.76926        -1.08920
C         34.74094        12.73085        -1.00330
C         33.51861        14.81865        -1.49963
C         33.50666        16.22081        -1.62399
C         34.68452        14.16694        -1.00100
C         34.58694        17.02917        -1.09740
C         33.25157        19.24096        -0.76598
C         34.46895        18.45942        -0.86007
C         35.11261         2.32078         1.86192
C         35.23720         3.69599         1.45133
C         36.08112         1.74623         2.71764
C         36.33574         4.47345         1.92488
C         35.57994         6.37758         0.57253
C         35.74288         7.76169         0.14246
C         36.50685         5.82410         1.50060
C         37.07418         8.45215         0.38740
C         36.03667        10.60419        -0.55804
C         35.87360        12.07900        -0.52788
C         37.03632         9.96615         0.32950
C         37.01104        12.83140        -0.10794
C         35.83466        14.93790        -0.64270
C         35.78681        16.37914        -0.64953
C         37.04240        14.25599        -0.27186
C         36.93351        17.11867        -0.15013
C         35.61012        19.15784        -0.47763
C         36.84659        18.56409        -0.16291
C         37.12551         2.52139         3.24460
C         37.25168         3.89427         2.86205
C         38.05055         1.96379         4.18736
C         38.27210         4.69592         3.44700
C         37.57671         6.63350         2.05181
C         37.80393         7.94909         1.60696
C         38.41515         6.06959         3.07281
C         38.81118         8.77096         2.20016
C         38.11850        10.70545         0.76083
C         38.15683        12.11974         0.35048
C         39.08010        10.10334         1.70762
C         39.35402        12.83577         0.27444
C         38.24830        14.99077        -0.01973
C         38.15786        16.42551         0.15691
C         39.44800        14.24179         0.20137
C         39.24418        17.15494         0.75581
C         37.88176        19.52939         0.07889
C         38.96291        19.30635         0.90544
C         39.02306         2.74197         4.75808
C         39.14816         4.12337         4.41392
C         40.13621         4.94097         5.01928
C         39.41325         6.86436         3.69174
C         39.58215         8.23644         3.28360
C         40.25783         6.26907         4.67472
C         40.54323         9.05597         3.92520
C         40.16892        10.80947         2.28345
C         40.70775        12.02900         1.69970
C         40.83847        10.30235         3.42385
C         41.34157        13.09404         2.28388
C         40.76012        14.77847         0.53999
C         40.64465        17.08126         0.57658
C         41.59499        14.28928         1.51688
C         41.59207        18.03812         0.97863
C         40.16138        20.06337         1.04690
C         41.37150        19.41269         1.22953
O         38.86304        18.13738         1.69176
O         14.28369         4.76033        -2.85775
O         19.42226        13.88754        -2.17221
O         36.09985        10.00097        -1.92477
O         33.99166        11.23107        -2.83071
O          6.99610        13.88456        -0.18992
O         29.35124         7.53235        -3.46054
O         13.25781         5.94059         0.36048
O         26.54697        10.26811        -3.57904
O         31.87345        14.38615        -3.31454
O         10.04289         8.14837        -2.01095
O         34.16958         6.54579        -2.11366
O         32.32944        18.11495        -2.59543
O         18.20542        13.98376         1.18864
O         30.40644         5.40355        -2.68164
O         16.99925         4.66375        -3.08254
O         41.17468        15.97393        -0.09191
O         26.36272        16.51629        -2.83993
O         26.20417         4.34906         0.72744
O         40.54955        12.10683         0.29595
O         24.35326        11.71284        -0.04326
O         29.25249        16.42782        -0.42459
O         27.78088        12.34884        -3.50497
O          9.36673         3.85193         1.31259
O          4.69420        16.72284         3.95190
O         17.58190        17.54155         1.86544
O          6.91172        15.22418         3.35057
O         10.21080        12.78092        -1.47489
O         25.84159        14.33364         0.18570
O         23.87629         7.90829        -3.72993
O         14.55943        10.19057        -2.92158
H         13.68312         9.84217        -3.19450
O          6.53148         7.61581         2.36195
H          7.32075         7.03827         2.44135
O         27.30393         6.65433         0.16766
H         26.75820         6.26588         0.89043
O         13.65160        19.69427        -0.96376
H         13.51344        18.93896        -1.57180
O          5.41851        12.19636         3.30829
H          4.81118        12.73502         3.88361
O          3.36671         3.71123        -1.66043
H          2.52547         3.25774        -1.88177
O         19.58863         5.28578        -3.84415
H         18.71184         4.90654        -4.08683
O         37.88987         8.06734        -0.77268
H         37.47780         8.50742        -1.55538
O          3.93521        14.27194         4.06653
H          4.49619        14.92107         4.55934
O         21.17004        12.29327        -3.15497
H         20.67404        13.12594        -3.34820
H          0.28763         1.54133         0.73799
H          0.31597         3.99036         1.04172
H          2.37173         0.28740         0.26097
H          0.23500         5.93196         0.70574
H          0.27173         8.35231         0.98005
H          0.31809        10.25903         1.24422
H          0.42483        12.64443         1.70737
H          0.66071        14.59351         1.40743
H          0.73075        17.01480         1.81179
H          1.92179        19.06865         2.45832
H          4.80830         0.30285         0.02928
H          4.07041        20.26263         2.39861
H          7.22076         0.27727        -0.26605
H          6.46900        20.19522         1.84769
H          9.72797         0.23511        -0.32513
H          8.89834        20.19027         1.49505
H         12.23815         0.23533        -0.24567
H         11.34376        20.18640         1.01247
H         14.70532         0.29908        -0.17025
H         13.81690        20.06590         1.05388
H         17.19419         0.38925        -0.13157
H         16.20143        20.14041         0.39380
H         19.64663         0.46083        -0.11700
H         18.73314        20.11660         0.11050
H         22.02338         0.47357        -0.19520
H         21.17232        20.09029        -0.12795
H         24.41767         0.44398        -0.09318
H         23.58921        20.08641        -0.58619
H         26.85294         0.48851         0.31102
H         25.99951        20.09094        -1.01624
H         29.30403         0.48155         0.54173
H         28.38025        20.15404        -1.21751
H         31.63586         0.47893         0.94730
H         30.55633        20.30073        -0.80188
H         33.87125         0.54408         1.77944
H         33.23404        20.05176        -0.02267
H         35.97948         0.69220         3.01518
H         35.52642        20.24802        -0.35765
H         37.95218         0.90297         4.45926
H         37.76183        20.51892        -0.38673
H         39.72002         2.31416         5.49318
H         40.81049         4.50181         5.76849
H         41.04126         6.86354         5.16175
H         41.09708         8.69258         4.79931
H         41.63711        10.90322         3.88071
H         41.65790        13.06046         3.33614
H         42.45483        14.91433         1.80211
H         42.64274        17.72880         0.87583
H         40.14335        21.15235         0.89769
H         42.26969        20.03002         1.38180
