         404
 CSIRO Nanostructure Databank - Neutral Graphene Oxide Data Set
C          2.03535         2.16004         3.47938
C          1.97319         3.54864         3.26912
C          3.18028         1.44975         3.16637
C          3.05780         4.25123         2.73035
C          1.82523         6.45957         2.79290
C          1.74968         7.81447         2.68439
C          3.03378         5.70097         2.54988
C          2.95032         8.62633         2.46759
C          1.74265        10.83179         2.45706
C          1.75215        12.23104         2.42914
C          2.88336        10.07483         2.09595
C          2.83580        12.95367         1.92023
C          1.88670        15.15067         2.59219
C          1.97218        16.52393         2.71124
C          2.92038        14.38916         1.98152
C          3.09245        17.21825         2.19976
C          3.19583        18.65240         2.33844
C          4.30880         2.11954         2.62445
C          4.24943         3.52921         2.39977
C          5.48661         1.39775         2.28477
C          5.38801         4.19295         1.84832
C          4.16002         6.35725         2.05884
C          4.19115         7.83314         2.08277
C          5.35196         5.63856         1.64526
C          5.20949         8.54541         1.26751
C          4.00335        10.73212         1.56385
C          3.87670        12.18369         1.14554
C          5.22756        10.03257         1.29060
C          5.18842        12.92074         1.00589
C          4.06485        15.07829         1.45987
C          4.12293        16.48742         1.56047
C          5.21915        14.30585         0.98205
C          5.22980        17.24734         0.93147
C          4.29115        19.34490         1.91801
C          5.39840        18.68832         1.25604
C          6.59169         2.03873         1.74925
C          6.54212         3.44723         1.54296
C          7.77238         1.20129         1.27906
C          7.71650         4.12186         0.95573
C          6.46008         6.31950         1.15578
C          6.43114         7.76594         0.86486
C          7.68964         5.61933         0.75964
C          7.71139         8.48753         0.72494
C          6.38489        10.67940         0.90610
C          6.38006        12.13388         0.63944
C          7.67764         9.94605         0.90623
C          7.70404        12.87605         0.50653
C          6.47055        15.00470         0.70773
C          6.43966        16.46763         0.46709
C          7.67177        14.33643         0.64506
C          7.72689        17.19185         0.21345
C          6.56360        19.36714         1.01032
C          7.76821        18.75671         0.42973
C          9.08839         1.96472         1.22330
C          9.04869         3.47975         1.10853
C         10.28973         1.31181         0.72479
C         10.21194         4.20139         0.56891
C          8.96571         6.36043         0.67185
C          8.93317         7.81127         0.66764
C         10.15843         5.63766         0.48219
C         10.17331         8.55103         0.51362
C          8.98935        10.69776         0.76080
C          8.99733        12.15641         0.55531
C         10.21306         9.93107         0.45909
C         10.19031        12.81243         0.38322
C          8.96376        15.06021         0.69148
C          8.99263        16.49616         0.37271
C         10.25062        14.28311         0.54013
C         10.20813        17.16950         0.26158
C          9.08002        19.34228         0.63397
C         10.24634        18.62317         0.35095
C         11.42540         2.04431         0.36089
C         11.38689         3.49975         0.28484
C         12.62372         1.37951        -0.01431
C         12.53349         4.20993        -0.21805
C         11.37838         6.33900         0.16713
C         11.46097         7.77699         0.63220
C         12.48610         5.64683        -0.28254
C         12.70064         8.51992         0.14449
C         11.43904        10.67206         0.18776
C         11.42470        12.09104         0.14609
C         12.65459         9.97995        -0.04030
C         12.62094        12.81072        -0.14591
C         11.46611        15.00412         0.12552
C         11.45003        16.43351         0.12584
C         12.62965        14.27525        -0.16673
C         12.65325        17.13753        -0.10397
C         11.50841        19.28169         0.27688
C         12.68787        18.58296        -0.01407
C         13.77344         2.08842        -0.41903
C         13.72113         3.52589        -0.53386
C         14.98080         1.41314        -0.70998
C         14.89441         4.24693        -0.99434
C         13.56561         6.37488        -1.04804
C         13.82018         7.78313        -0.54380
C         14.84775         5.61803        -1.19572
C         14.87020         8.56071        -1.22928
C         13.82252        10.66956        -0.45002
C         13.79660        12.09323        -0.44951
C         14.96509         9.92793        -0.99569
C         15.05540        12.83783        -0.65600
C         13.82971        14.99427        -0.49169
C         13.83843        16.42189        -0.43394
C         15.02544        14.30383        -0.82231
C         15.03696        17.13065        -0.74415
C         13.91927        19.26181        -0.21925
C         15.08492        18.58007        -0.60567
C         16.15599         2.11161        -1.08700
C         16.11957         3.53208        -1.25436
C         17.37455         1.41598        -1.28319
C         17.30989         4.25003        -1.60418
C         15.91132         6.27897        -2.03686
C         15.90963         7.81742        -1.97808
C         17.27902         5.65220        -1.84726
C         17.21380         8.54910        -2.22839
C         16.16623        10.64166        -1.41175
C         16.26672        12.09151        -1.12233
C         17.25814         9.98688        -1.91310
C         17.40186        12.85831        -1.67781
C         16.17798        15.00281        -1.23826
C         16.15660        16.42730        -1.21236
C         17.38871        14.28857        -1.64611
C         17.29795        17.20032        -1.73229
C         16.30447        19.27087        -0.82436
C         17.44612        18.61959        -1.34051
C         18.56938         2.10599        -1.55991
C         18.54559         3.53892        -1.69341
C         19.79902         1.41035        -1.70234
C         19.75496         4.24963        -1.91547
C         18.48304         6.37807        -2.05858
C         18.49486         7.79966        -2.23090
C         19.73963         5.67071        -2.04031
C         19.71960         8.52081        -2.21894
C         18.45817        10.70943        -2.46710
C         18.53522        12.16225        -2.08253
C         19.74905         9.95376        -2.26540
C         19.76324        12.84923        -2.27803
C         18.54772        14.97682        -2.04300
C         18.53367        16.44668        -2.16865
C         19.77125        14.27844        -2.27874
C         19.80457        17.17534        -2.20855
C         18.68320        19.25100        -1.51735
C         19.85758        18.54804        -1.94760
C         21.00674         2.08811        -1.92731
C         20.99303         3.53615        -2.00826
C         22.23499         1.37678        -2.01466
C         22.19219         4.24637        -2.18650
C         20.97068         6.38302        -2.13086
C         20.96915         7.81276        -2.15757
C         22.21020         5.66988        -2.16905
C         22.19934         8.52614        -2.11341
C         20.96046        10.65990        -2.27541
C         20.97785        12.10871        -2.36539
C         22.20835         9.95458        -2.16878
C         22.20325        12.81197        -2.41569
C         20.99492        14.96840        -2.52101
C         20.98780        16.44626        -2.67563
C         22.20575        14.24659        -2.52193
C         22.29951        17.20817        -2.83878
C         21.14464        19.20662        -1.92750
C         22.33531        18.60304        -2.27896
C         23.46183         2.03455        -2.20833
C         23.43248         3.49376        -2.41343
C         24.70339         1.36964        -2.21722
C         24.76707         4.26591        -2.21440
C         23.45015         6.39221        -2.07222
C         23.43727         7.81324        -1.99732
C         24.68913         5.70487        -1.90467
C         24.66457         8.52722        -1.83602
C         23.43651        10.66681        -2.12604
C         23.44058        12.09877        -2.28930
C         24.66506         9.95448        -1.92795
C         24.65426        12.82161        -2.27330
C         23.46701        14.93894        -2.61742
C         23.51978        16.35321        -2.86208
C         24.67397        14.22006        -2.51515
C         24.73642        16.95474        -3.15612
C         23.58156        19.28627        -1.92905
C         24.76753        19.03426        -2.56868
C         25.93587         2.06789        -2.05374
C         25.92026         3.47447        -1.85496
C         27.18150         1.36944        -1.95077
C         27.06893         4.09902        -1.11466
C         25.84966         6.39295        -1.52027
C         25.88029         7.82113        -1.57449
C         27.06651         5.63839        -1.13415
C         27.12271         8.54616        -1.48923
C         25.89136        10.65994        -1.76113
C         25.87313        12.13167        -1.81496
C         27.09853         9.96933        -1.55330
C         27.22242        12.86132        -1.91634
C         25.96611        14.90885        -2.78698
C         26.01375        16.38550        -2.87862
C         27.25762        14.19200        -2.58962
C         27.20003        17.12571        -2.71296
C         26.14336        19.40206        -2.30516
C         27.22678        18.58806        -2.57002
C         28.40673         2.07936        -1.89160
C         28.32366         3.51843        -1.73775
C         29.63989         1.38243        -1.76462
C         29.39857         4.33198        -2.05210
C         28.37032         6.38574        -1.22912
C         28.36964         7.83766        -1.46113
C         29.60260         5.65887        -1.60616
C         29.62110         8.46151        -1.53327
C         28.37920        10.71197        -1.44842
C         28.44345        12.10442        -1.87955
C         29.66399         9.92974        -1.46756
C         29.66512        12.76014        -2.47188
C         28.50314        14.97967        -2.44694
C         28.45594        16.40040        -2.50848
C         29.68826        14.25223        -2.20731
C         29.70534        17.08014        -2.41065
C         28.56873        19.31232        -2.68343
C         29.78737        18.52688        -2.25132
C         30.95212         1.92886        -1.55254
C         31.23557         3.25899        -2.01832
C         31.87118         1.18503        -0.73610
C         32.24897         4.17447        -1.55357
C         30.86520         6.31579        -1.54976
C         30.85829         7.74391        -1.45724
C         32.12083         5.60400        -1.40173
C         32.08927         8.46134        -1.23573
C         30.95468        10.60043        -1.80284
C         30.98840        12.06337        -2.12053
C         32.13565         9.87678        -1.27715
C         32.13122        12.85118        -1.57474
C         30.92882        14.91635        -2.08172
C         30.87394        16.29071        -2.38672
C         32.14588        14.24008        -1.57635
C         32.44285        17.31773        -1.41627
C         30.82758        19.20291        -1.65612
C         32.00048        18.61816        -1.02115
C         33.24214         1.50041        -0.67985
C         33.48197         3.58011        -1.23214
C         34.22995         1.23068         0.27194
C         34.50308         4.20251        -0.50002
C         33.27731         6.31622        -0.93641
C         33.27391         7.75571        -0.88424
C         34.44223         5.62680        -0.46240
C         34.43818         8.48978        -0.49743
C         33.30096        10.59411        -0.98948
C         33.15774        12.06984        -0.84997
C         34.46518         9.90938        -0.56749
C         34.24808        12.81997        -0.18239
C         33.20578        14.98478        -0.82937
C         33.14590        16.44131        -0.60117
C         34.20396        14.29838        -0.16028
C         33.90230        17.07752         0.44491
C         32.68259        19.20832         0.03783
C         33.73548        18.49121         0.68796
C         35.43648         2.01633         0.41183
C         35.55128         3.43288         0.12425
C         36.52987         1.38988         1.04659
C         36.66758         4.16091         0.61831
C         35.58490         6.34148         0.01510
C         35.59686         7.77117        -0.01931
C         36.69977         5.59640         0.51789
C         36.78060         8.45513         0.34900
C         35.69727        10.67628        -0.21909
C         35.57181        12.15742         0.03027
C         36.91119         9.95185         0.34168
C         36.55525        12.85335         0.94205
C         34.93408        14.86930         1.04695
C         34.90882        16.36748         1.12080
C         36.27182        14.23526         1.41110
C         35.84123        17.04158         1.92639
C         34.60413        19.13683         1.58657
C         35.70075        18.45982         2.15336
C         37.71463         2.07175         1.37441
C         37.78468         3.48722         1.19828
C         38.82998         1.37593         1.95113
C         38.92266         4.20923         1.68428
C         37.87466         6.29340         0.91051
C         37.91084         7.66731         0.58330
C         38.96623         5.63789         1.60777
C         39.22334         8.68993         1.88446
C         37.73178        10.67223         1.39849
C         37.49098        12.00009         1.70399
C         38.64445         9.91349         2.28080
C         37.95239        12.61858         2.98028
C         37.17288        14.89424         2.23374
C         37.00589        16.34887         2.40367
C         38.09835        14.10266         3.06698
C         38.01389        17.16711         2.89754
C         36.64340        19.14604         2.97731
C         37.80796        18.49840         3.37760
C         39.92810         2.06113         2.39242
C         39.98284         3.49197         2.31441
C         41.04815         4.21129         2.89938
C         39.95460         6.33497         2.37033
C         39.80642         7.75290         2.75305
C         40.99384         5.59404         2.97793
C         40.08093         8.20577         4.05900
C         39.00750        10.35655         3.57504
C         38.65916        11.73659         3.99269
C         39.74961         9.50931         4.42294
C         39.50459        12.39795         4.99882
C         38.88302        14.60634         4.11076
C         39.19474        16.02705         4.23440
C         39.55469        13.74702         5.06143
C         39.36323        16.80811         5.34749
C         38.73240        19.02970         4.36605
C         39.40468        18.25218         5.27177
O          5.39972        16.87027        -0.47707
O         17.55124        16.94659        -3.15778
O         13.86895         8.01209         0.90065
O          6.93238        12.44558        -0.69172
O          4.04012         8.37967         3.43114
O         24.67187        18.22552        -3.72375
O         33.14552        12.29963         0.66205
O         26.66670        14.22458        -3.92163
O         39.14752         8.32088         0.53573
O          5.34667         8.07526        -0.11196
O          7.49633         4.66625        -0.37888
O         21.43715        16.97351        -3.98996
O         16.09656        12.39875         0.31305
O         30.35572         3.77529        -2.94963
O          8.46072        10.36635         2.10806
O          9.28112         2.83675         2.40083
O         32.08383        16.90815        -2.70564
O         31.25760        11.05288        -3.17510
O         26.45889        12.82038        -0.64907
O         27.73120         6.10508         0.10077
O         36.88794        10.42629        -1.03867
O         24.21243         3.95293        -3.54381
O         33.69964         2.31027        -1.75419
O          9.76866        14.70518         1.87797
O         29.14562        10.44115        -0.18525
O          7.63830        18.12051        -0.88506
O         37.22655        12.01727         4.12905
O         36.69139        12.88345        -0.53603
O         39.31953        16.66612         2.98359
O         16.23509         8.32268        -3.31882
O          3.35181        12.11537        -0.24251
H          3.34684        13.02929        -0.60043
O         15.51136         5.92566        -3.41802
H         15.89259         6.63747        -3.99169
O         13.02151         6.55844        -2.40218
H         13.70770         6.24790        -3.04771
O         29.49154        12.68688        -3.92109
H         30.03478        11.92371        -4.23464
O         34.06754        14.45562         2.17920
H         33.61012        13.61356         1.94589
O         11.61820         7.63153         2.08254
H         12.58024         7.49457         2.24724
O         26.97062         3.66871         0.27151
H         27.40918         4.37225         0.80626
O         28.52180        20.58209        -2.03269
H         28.48578        20.43341        -1.06557
O          7.93543         0.05075         2.11634
H          8.24018         0.36325         2.99357
O         18.23242        10.72288        -3.92505
H         19.01027        11.15191        -4.34097
H          1.16391         1.64105         3.90233
H          1.05078         4.07548         3.54698
H          3.22842         0.36449         3.33444
H          0.89545         5.90771         2.98866
H          0.76634         8.30420         2.72809
H          0.86876        10.32362         2.88651
H          0.89255        12.75345         2.87120
H          0.99983        14.64353         2.99342
H          1.16500        17.08757         3.20020
H          2.36933        19.18146         2.83487
H          5.51430         0.30831         2.43279
H          4.35652        20.43063         2.08064
H          7.53908         0.81731         0.24873
H          6.64604        20.41148         1.35099
H         10.27775         0.22101         0.58267
H          9.15314        20.38131         0.98864
H         12.66459         0.28168         0.04480
H         11.53972        20.37774         0.36709
H         15.02153         0.31861        -0.60604
H         13.94561        20.35710        -0.11670
H         17.39379         0.32164        -1.17420
H         16.35199        20.34876        -0.60730
H         19.80375         0.31352        -1.61668
H         18.77807        20.31696        -1.26088
H         22.22263         0.28268        -1.89951
H         21.17413        20.23739        -1.54218
H         24.71730         0.26971        -2.19120
H         23.54822        20.01232        -1.10282
H         27.18752         0.27084        -2.00631
H         26.36375        20.44373        -2.01314
H         29.54742         0.29719        -1.59032
H         28.69059        19.53284        -3.78352
H         31.47142         0.38704        -0.09446
H         30.68799        20.28673        -1.50836
H         34.09319         0.39207         0.97135
H         32.43095        20.22522         0.37285
H         36.46123         0.31565         1.27509
H         34.47640        20.21224         1.78005
H         38.77762         0.28186         2.04781
H         36.43569        20.17765         3.29640
H         40.77197         1.52629         2.85194
H         41.88038         3.66365         3.36414
H         41.77993         6.13364         3.52491
H         40.54152         7.53365         4.79596
H         40.00041         9.84699         5.43708
H         40.12071        11.79533         5.67943
H         40.18700        14.23329         5.81845
H         39.42063        16.34370         6.34277
H         38.74377        20.12136         4.50995
H         39.91494        18.76934         6.10057
