         404
 CSIRO Nanostructure Databank - Neutral Graphene Oxide Data Set
C          0.98461         4.14790        -0.63010
C         -0.15468         4.39581         0.11685
C          1.12829         5.82700         1.57820
C         -0.08112         5.21375         1.26009
C          1.33927         7.89987         2.58969
C          0.28288         8.65635         3.10768
C          1.43381        10.69257         2.49212
C          0.30780        10.04299         3.01946
C          1.38901        12.18163         2.32581
C          0.07024        12.83617         2.13356
C          1.06648        14.60222         0.70446
C         -0.03965        14.01002         1.48957
C          0.92445        16.04787         0.12603
C         -0.12208        16.98963         0.53890
C          1.13393        18.90598        -0.38799
C          0.02268        18.33320         0.34688
C          1.20741        20.34707        -0.68112
C          0.05177        21.11679        -0.66238
C          1.17147        23.30585        -0.85890
C          0.02359        22.53409        -0.76518
C          1.18415        24.76081        -0.89559
C         -0.00733        25.53851        -0.85249
C          1.17364        27.66546        -1.19670
C         -0.00707        26.92530        -0.95286
C          1.21888        29.09968        -1.27120
C          0.02315        29.85540        -1.41361
C          1.22612        31.98292        -1.25781
C          0.02876        31.23432        -1.43034
C          1.22584        33.43107        -1.26522
C          0.04243        34.18267        -1.47534
C          1.25805        36.28522        -1.29300
C          0.05656        35.56788        -1.49183
C          1.28549        37.72015        -1.31066
C          3.41581         4.31383        -0.95066
C          2.23649         4.71735        -0.27010
C          3.54678         6.36203         1.07081
C          2.30224         5.65879         0.81344
C          3.63996         7.70187         1.49728
C          2.48566         8.49063         2.00049
C          3.80983        10.59742         1.74875
C          2.53475         9.91378         2.04542
C          3.84160        12.10175         1.57529
C          2.58490        12.89323         1.74984
C          3.54275        14.63456         0.23054
C          2.42596        14.06882         0.86538
C          3.29591        15.82227        -0.54263
C          2.15656        16.62857        -0.42010
C          4.03316        19.11911        -0.89159
C          2.10006        18.00172        -0.83586
C          3.80426        20.46039        -0.59704
C          2.48664        21.05993        -0.97727
C          3.69990        23.34324        -0.74571
C          2.45416        22.58974        -1.02415
C          3.65407        24.74257        -0.89731
C          2.42338        25.44106        -1.04465
C          3.72058        27.71475        -1.19420
C          2.41091        26.89535        -1.32940
C          3.68063        29.15611        -0.94503
C          2.45476        29.83565        -1.12659
C          3.67133        31.98764        -0.85750
C          2.44410        31.27352        -1.07691
C          3.66984        33.41815        -0.84631
C          2.45122        34.13332        -1.06254
C          3.68506        36.27391        -0.85971
C          2.46539        35.56318        -1.07147
C          3.69064        37.71248        -0.88532
C          2.45268        38.40628        -1.11858
C          5.83192         4.00361        -0.95002
C          4.68087         4.62043        -0.43894
C          6.10145         6.16425         0.94728
C          4.76039         5.46459         0.82293
C          6.15785         7.64946         1.17427
C          4.89477         8.41194         1.31073
C          6.19638        10.52549         1.08531
C          4.97100         9.80708         1.30029
C          6.19301        11.97007         0.90246
C          4.98027        12.71974         0.86798
C          6.17247        14.75780         0.24660
C          4.91617        14.05643         0.40255
C          6.27077        16.19241         0.05655
C          5.22699        16.97142        -0.51787
C          6.12369        19.07118         0.41181
C          5.11839        18.35556        -0.37904
C          6.08211        20.57781         0.44676
C          4.87745        21.26747        -0.09048
C          6.09794        23.44717        -0.01010
C          4.87069        22.65986        -0.28702
C          6.20398        24.81491        -0.58066
C          4.93212        25.49735        -0.94484
C          6.12171        27.70774        -0.28291
C          4.87892        26.96125        -0.66963
C          6.12447        29.17230        -0.42472
C          4.89596        29.85329        -0.63862
C          6.10909        31.99930        -0.39599
C          4.88915        31.28713        -0.63183
C          6.09860        33.42613        -0.38547
C          4.88250        34.13226        -0.61591
C          6.10931        36.27756        -0.39151
C          4.88997        35.56451        -0.62045
C          6.10937        37.72123        -0.45075
C          4.88727        38.40628        -0.69394
C          8.28247         3.68764        -1.03007
C          7.15130         4.31580        -0.51657
C          8.62487         6.21778         0.32162
C          7.31611         5.43916         0.43003
C          8.59032         7.68307         0.55249
C          7.41880         8.37061         0.87725
C          8.66805        10.49788         0.89342
C          7.41642         9.80463         0.93590
C          8.66010        11.96612         1.07691
C          7.40681        12.68199         0.77071
C          8.68078        14.79325         0.51793
C          7.40822        14.07777         0.53751
C          8.69984        16.21987         0.43846
C          7.47242        16.89438         0.33587
C          8.70184        19.09872         0.55324
C          7.44176        18.34017         0.59708
C          8.64383        20.54676         0.12114
C          7.39909        21.30391         0.56243
C          8.68149        23.46561         0.06343
C          7.40450        22.78146         0.34724
C          8.66375        24.87494        -0.11936
C          7.42829        25.58913        -0.24298
C          8.61569        27.73323        -0.17879
C          7.40631        26.98123        -0.24265
C          8.58754        29.16714        -0.12370
C          7.34576        29.86946        -0.24046
C          8.53419        32.01832         0.12132
C          7.33635        31.30199        -0.18778
C          8.49425        33.42919         0.16733
C          7.30576        34.14039        -0.11718
C          8.53105        36.30102         0.10368
C          7.30589        35.57954        -0.11517
C          8.53491        37.73930        -0.04251
C          7.31705        38.41912        -0.29500
C         10.72501         3.64147        -1.49945
C          9.59578         4.29613        -0.98370
C         10.86426         6.44344        -0.78613
C          9.67708         5.64598        -0.52175
C         10.97280         7.75569        -0.11953
C          9.81606         8.40564         0.35663
C         11.16515        10.49155         0.65569
C          9.85635         9.80473         0.67264
C         11.24150        11.98889         0.82501
C          9.96366        12.73123         1.01323
C         11.15510        14.84334         0.39941
C          9.92303        14.14619         0.62415
C         11.15337        16.27877         0.32134
C          9.92927        16.95896         0.45171
C         11.15046        19.12979         0.31056
C          9.89825        18.40713         0.44568
C         11.11785        20.58312         0.37011
C          9.93624        21.30366         0.32590
C         11.11819        23.47950         0.04747
C          9.90895        22.75516         0.17364
C         11.14032        24.89667        -0.18362
C          9.88334        25.61787        -0.19615
C         11.08488        27.80836        -0.32987
C          9.84430        27.02548        -0.22792
C         11.05575        29.22788         0.07773
C          9.80662        29.90167         0.07739
C         10.99889        31.98506         0.62079
C          9.78732        31.31144         0.30573
C         10.93568        33.42005         0.98846
C          9.66756        34.16950         0.66815
C         10.96635        36.31828         0.51262
C          9.71958        35.62955         0.44525
C         10.97110        37.74771         0.27857
C          9.75330        38.43084         0.05911
C         13.28030         3.55491        -1.54345
C         12.02118         4.32304        -1.87651
C         13.40009         6.35695        -1.08325
C         12.08276         5.77877        -1.41166
C         13.43922         7.67830        -0.47291
C         12.20357         8.46710        -0.25990
C         13.50155        10.57734        -0.43830
C         12.30289         9.80577         0.03861
C         13.57136        12.01967        -0.04491
C         12.41212        12.72601         0.28953
C         13.56672        14.85126        -0.35738
C         12.36888        14.13844         0.21940
C         13.60966        16.32573        -0.06042
C         12.39025        17.00751         0.13782
C         13.58964        19.17908        -0.29794
C         12.34937        18.44222         0.14410
C         13.65911        20.59429         0.18994
C         12.41090        21.27542         0.50427
C         13.64609        23.41309        -0.14354
C         12.38364        22.80438         0.31817
C         13.64153        24.91254        -0.35344
C         12.35227        25.59716        -0.24043
C         13.61952        27.73259         0.09213
C         12.38733        27.05541        -0.34717
C         13.49471        29.11309         0.56171
C         12.25066        29.89848         0.38315
C         13.50482        32.03206         0.80708
C         12.24528        31.30011         0.64900
C         13.48761        33.46609         0.87189
C         12.22294        34.20576         1.24889
C         13.42073        36.33486         0.65956
C         12.19431        35.63730         0.73370
C         13.41746        37.76205         0.42261
C         12.19477        38.44283         0.27163
C         15.74248         3.45646        -1.29725
C         14.50853         4.18175        -1.38981
C         15.86566         6.28711        -1.11618
C         14.57721         5.62808        -1.19059
C         15.96728         7.68449        -0.87712
C         14.78687         8.38660        -0.37741
C         16.01151        10.52627        -0.41666
C         14.80273         9.84485        -0.31166
C         16.02871        11.96063        -0.26455
C         14.83611        12.69913        -0.15580
C         16.08868        14.83681        -0.12763
C         14.86305        14.13024        -0.09693
C         16.10559        16.27446        -0.18630
C         14.86582        17.01086        -0.14069
C         16.09347        19.15190        -0.12137
C         14.88602        18.43441        -0.09432
C         16.12397        20.57676        -0.03028
C         14.88295        21.29219         0.14230
C         16.11484        23.45145         0.02837
C         14.91045        22.72339         0.12131
C         16.09782        24.91526        -0.00240
C         14.90557        25.62855        -0.11158
C         16.07736        27.79009         0.28668
C         14.83843        27.05549         0.13042
C         16.04115        29.18157         0.42946
C         14.80245        29.88182         0.77291
C         15.99199        32.05117         0.76996
C         14.74815        31.35494         0.73269
C         15.95514        33.49796         1.02529
C         14.67273        34.20845         0.88106
C         15.90457        36.36196         0.63311
C         14.67606        35.64269         0.78552
C         15.87340        37.79092         0.40733
C         14.63980        38.46187         0.33384
C         18.21021         3.36720        -1.02716
C         16.98285         4.10766        -1.27485
C         18.33673         6.22022        -1.52658
C         17.04605         5.53457        -1.33149
C         18.40952         7.75627        -1.56978
C         17.17840         8.41633        -0.98541
C         18.49173        10.52062        -0.89486
C         17.21868         9.78237        -0.70494
C         18.52744        11.98696        -0.57424
C         17.32628        12.62924         0.08181
C         18.55543        14.79734        -0.12806
C         17.32563        14.12689        -0.10128
C         18.57346        16.22810        -0.24851
C         17.35926        16.94507        -0.27869
C         18.65174        19.20435        -0.40555
C         17.34479        18.42162        -0.41878
C         18.61559        20.62820        -0.01467
C         17.35010        21.31951        -0.02669
C         18.63934        23.47882        -0.08186
C         17.33628        22.73607         0.04221
C         18.55635        24.93505         0.32681
C         17.34429        25.63140         0.20038
C         18.54994        27.76114         0.41500
C         17.32960        27.06900         0.26678
C         18.59460        29.21356         0.22712
C         17.23522        29.98535         0.21818
C         18.48389        32.11889         0.56802
C         17.22963        31.40880         0.58738
C         18.49601        33.54231         0.59952
C         17.25534        34.27267         0.91153
C         18.36744        36.41532         0.36749
C         17.16986        35.71272         0.61995
C         18.32083        37.84453         0.19682
C         17.08392        38.50162         0.22797
C         19.41028         3.98231        -0.88593
C         20.79201         6.13817        -0.81931
C         19.58658         5.40235        -1.24608
C         20.82467         7.49506        -0.72753
C         19.69492         8.35373        -0.99093
C         20.95517        10.47405        -0.54062
C         19.75375         9.73751        -0.83067
C         20.99028        11.83054        -0.30291
C         19.81912        12.65405        -0.26842
C         21.00851        14.77701         0.26567
C         19.80498        14.03354        -0.04031
C         21.04680        16.12909         0.20697
C         19.89050        16.91436        -0.27660
C         21.07770        19.18310         0.29496
C         19.94461        18.44436        -0.29436
C         20.99392        20.50044         0.60083
C         19.79209        21.28978         0.38700
C         20.90315        23.45360         0.96602
C         19.79816        22.71872         0.52744
C         20.90642        24.85536         0.99476
C         19.75917        25.62108         0.68190
C         20.91147        27.83980         1.01893
C         19.75900        27.07170         0.72633
C         20.91165        29.23926         0.99676
C         19.78498        29.97224         0.59735
C         20.92605        32.17231         0.41209
C         19.73466        31.41431         0.51293
C         20.90319        33.55209         0.30868
C         19.68665        34.27415         0.40386
C         20.79341        36.49438         0.12746
C         19.63822        35.73523         0.31319
C         20.74191        37.89899        -0.01925
C         19.53769        38.56658         0.00471
O          3.24482        27.28071        -2.48684
O          0.56816        14.85728        -0.65527
O         14.07444        29.30205         1.90380
O         13.62365        23.96800        -1.49665
O          6.58746        23.46547         1.36457
O          3.09942        18.46124        -1.70440
O         16.70043        33.90881         2.22720
O          5.13805        27.24351         0.74119
O          9.31722        12.45995         2.29800
O         11.22327         6.61047        -2.25761
O         17.96150        29.68193        -1.00831
O          6.47187        18.53940         1.71581
O         19.13665         5.66389        -2.62967
O          2.51737        21.77222        -2.25195
O         11.81112        27.59585        -1.60684
O          2.24129        13.03425         3.17087
O         14.20131         7.69645         0.79804
O          6.30402         6.67103         2.29268
O          9.96826        33.71576         2.05865
O          8.32684         5.30313         1.45206
O         18.38729        11.55434        -1.95402
O          1.21634         6.52332         2.79306
O         11.56625        11.12240         1.95088
O          4.24458        11.49535         2.83970
O          5.83801        25.00760        -1.99248
O         17.95455        18.93050        -1.66042
O         12.48877        22.20399         1.64140
O          6.65289        20.98354         1.74603
O          4.33500        16.29346        -1.35685
O         20.24089        17.67291        -1.49545
O         11.97930         4.35957        -3.34850
H         11.48109         5.17705        -3.58464
O         17.52270        12.38250         1.52304
H         16.74906        12.75540         1.99697
O         13.29866        10.62264        -1.92519
H         13.94020        11.27224        -2.28879
O         13.43767        19.26803        -1.77555
H         14.25981        19.67349        -2.12866
O         12.34344        34.34868         2.69921
H         11.42221        34.36158         3.05341
O          4.72163         4.50367         1.91998
H          5.08068         4.96700         2.71006
O         18.40071         8.12451        -2.97627
H         18.93394         7.44170        -3.44549
O          8.44787        20.48265        -1.34515
H          9.26935        20.12437        -1.74626
O         13.37881        14.77330        -1.83538
H         14.08648        15.31648        -2.24545
O         18.93368        23.51443        -1.53221
H         19.80041        23.96067        -1.64132
H          0.94557         3.45764        -1.48445
H         -1.10751         3.92063        -0.15356
H         -0.95389         5.35147         1.91072
H         -0.56258         8.13953         3.57875
H         -0.53791        10.62124         3.41279
H         -0.82419        12.38912         2.59018
H         -1.02801        14.47864         1.37786
H         -1.02216        16.60388         1.03694
H         -0.76266        19.00469         0.72201
H         -0.91714        20.61488        -0.52801
H         -0.96101        23.02036        -0.71586
H         -0.97105        25.03075        -0.70855
H         -0.96609        27.45235        -0.85078
H         -0.93309        29.33159        -1.54863
H         -0.92663        31.75650        -1.57210
H         -0.91421        33.66794        -1.63553
H         -0.87775        36.12221        -1.66188
H          0.34454        38.26223        -1.48503
H          3.33028         3.65257        -1.82589
H          2.46149        39.50585        -1.13694
H          5.71205         3.25789        -1.75090
H          4.89004        39.50595        -0.72966
H          8.15655         2.78564        -1.64741
H          7.32401        39.51589        -0.38004
H         10.60149         2.60955        -1.86285
H          9.76804        39.52343        -0.06789
H         13.24505         2.45849        -1.63325
H         12.19843        39.53049         0.10793
H         15.71255         2.35663        -1.28015
H         14.62566        39.54780         0.15853
H         18.12090         2.28875        -0.82785
H         17.04640        39.59231         0.08887
H         20.29359         3.41426        -0.55780
H         21.67582         5.55142        -0.52743
H         21.75417         7.96416        -0.37228
H         21.91165         9.93174        -0.53625
H         21.97017        12.29534        -0.12004
H         21.91791        14.22498         0.54282
H         21.99355        16.65264         0.39972
H         22.03588        18.66049         0.42347
H         21.88723        21.00311         0.99678
H         21.81006        22.93373         1.30651
H         21.82475        25.36127         1.32176
H         21.84520        27.33111         1.29492
H         21.83165        29.76775         1.28446
H         21.89154        31.65030         0.35845
H         21.85432        34.08534         0.18032
H         21.77685        36.00754         0.08659
H         21.67877        38.45511        -0.16285
H         19.49804        39.65809        -0.11972
