         762
 CSIRO Nanostructure Databank - Neutral Graphene Oxide Data Set
C         22.74563        24.54212         0.60626
C         21.55799        25.26618         0.58752
C         22.79543        27.33277         0.20073
C         21.57626        26.64662         0.39102
C         22.81816        28.78496        -0.01208
C         21.64340        29.50000        -0.25921
C         22.81845        31.62856        -0.11164
C         21.64631        30.89718        -0.32875
C         22.76350        33.11098         0.00633
C         21.69258        33.88279        -0.64645
C         22.93685        35.99982        -0.41155
C         21.76267        35.22978        -0.77842
C         22.98069        37.41513        -0.61442
C         21.77267        38.18189        -0.85657
C         23.01292        40.27550        -1.25967
C         21.76657        39.52752        -1.04149
C         23.06343        41.76267        -1.28661
C         21.87911        42.50891        -1.38061
C         23.15267        44.55350        -1.66819
C         21.92469        43.88944        -1.54463
C         23.12534        46.04239        -1.92716
C         22.53179        46.34037        -3.30205
C         24.30224        47.81655        -4.34434
C         23.02937        47.10865        -4.29706
C         25.29564        23.08680         0.22066
C         25.22977        24.45327         0.49519
C         23.98750        25.20073         0.45132
C         25.29810        27.30406        -0.07200
C         24.00323        26.60813         0.26315
C         25.28402        28.79776         0.18938
C         24.05546        29.50504         0.08828
C         25.28508        31.66217         0.26111
C         24.04537        30.94007         0.09120
C         25.31214        33.08458         0.34221
C         24.04919        33.86082         0.30081
C         25.28359        36.02981         0.31476
C         24.09915        35.31801         0.01808
C         25.31197        37.43563         0.14685
C         24.19692        38.11090        -0.41005
C         25.46288        40.34503        -0.55231
C         24.30109        39.51853        -0.87397
C         25.53748        41.71357        -0.94964
C         24.31649        42.43693        -1.31007
C         25.66802        44.55141        -1.72696
C         24.36142        43.84105        -1.55249
C         25.68288        46.04591        -1.73939
C         24.47974        46.66709        -1.79409
C         26.37212        48.71894        -3.16744
C         24.99324        48.22367        -3.25030
C         26.72854        49.86843        -3.96629
C         27.74725        23.00420         0.48739
C         26.49286        22.36230         0.25354
C         27.73577        24.38715         0.72338
C         26.46355        25.17243         0.96550
C         27.68823        27.33864         0.57980
C         26.52149        26.62152         0.49312
C         27.74093        28.78003         0.40699
C         26.50616        29.50302         0.31404
C         27.74453        31.64816         0.51992
C         26.50956        30.94250         0.35792
C         27.75772        33.08247         0.60791
C         26.52560        33.77802         0.51465
C         27.77865        35.97110         0.96947
C         26.47164        35.24613         0.76957
C         27.77965        37.47028         0.83272
C         26.51102        38.22504         0.52512
C         27.91961        40.35614         0.02073
C         26.57804        39.69269         0.14214
C         28.00385        41.65409        -0.70095
C         26.76654        42.40932        -0.91181
C         28.17505        44.54963        -1.02374
C         26.93027        43.79894        -1.38586
C         28.20218        46.04849        -1.12316
C         26.98143        46.82145        -1.58908
C         28.52457        48.90053        -1.92018
C         27.26182        48.12119        -2.30135
C         28.93315        49.99563        -2.91671
C         27.94794        50.46070        -3.85702
C         30.24941        20.10836         0.37486
C         29.08360        20.81306         0.42038
C         30.22428        22.96692         0.50369
C         29.01607        22.26280         0.47081
C         30.23794        24.39114         0.56148
C         28.99108        25.11167         0.88833
C         30.16403        27.32994         0.35558
C         28.96222        26.63677         0.86881
C         30.23714        28.76148         0.38692
C         28.97831        29.48767         0.51251
C         30.19500        31.62437         0.93693
C         28.95510        30.90124         0.62337
C         30.22004        33.09093         0.87333
C         29.02477        33.79956         0.78160
C         30.28765        35.94854         0.89322
C         29.05840        35.24064         0.85578
C         30.32788        37.37495         0.77122
C         29.08217        38.08239         0.43279
C         30.43426        40.22847         0.24791
C         29.16022        39.52416         0.05081
C         30.52151        41.66594        -0.08591
C         29.31915        42.38536        -0.62843
C         30.48205        44.59745        -0.09941
C         29.29230        43.86491        -0.63026
C         30.73041        45.91961        -0.74429
C         29.54959        46.70909        -1.19719
C         30.99259        48.72677        -1.29647
C         29.70163        48.01858        -1.53128
C         31.22633        50.05943        -1.95678
C         30.17796        50.60100        -2.85384
C         31.69924        52.49430        -3.35297
C         30.52866        51.83833        -3.53190
C         32.76454        18.72431        -0.83982
C         32.78866        20.13089        -0.35025
C         31.57525        20.76267         0.31714
C         32.76703        23.03983         0.14541
C         31.53213        22.26093         0.47847
C         32.63860        24.49127        -0.18240
C         31.34280        25.12792         0.10781
C         32.98170        27.51030        -0.16372
C         31.16037        26.50796        -0.17279
C         32.76058        28.81870         0.35041
C         31.49498        29.44805         0.43275
C         32.73296        31.67035         0.63537
C         31.50398        30.86743         0.87651
C         32.74264        33.02593         0.70318
C         31.52892        33.77956         1.20884
C         32.73430        35.95999         0.72854
C         31.54299        35.25467         0.88383
C         32.78164        37.38558         0.79263
C         31.53605        38.08368         0.77450
C         32.80386        40.20846         0.92833
C         31.56104        39.52880         0.65075
C         32.75609        41.66933         1.17219
C         31.68826        42.42229         0.45080
C         32.97932        44.58031         0.71749
C         31.65222        43.91176         0.53470
C         33.09958        45.97372         0.36829
C         32.05124        46.57893        -0.48254
C         33.34444        48.66228        -0.49137
C         32.16859        48.01030        -0.75822
C         33.63465        49.94777        -1.14936
C         32.64968        50.53746        -2.09883
C         33.43262        52.84210        -1.49897
C         32.91007        51.95625        -2.62474
C         33.20218        54.17756        -1.47050
C         35.18502        18.84745        -1.39625
C         33.89214        18.11854        -1.24422
C         35.16739        20.35265        -1.34629
C         33.81268        21.03839        -1.07782
C         35.15227        23.06265        -0.41018
C         33.98789        22.37003        -0.39050
C         35.18604        24.40575         0.23519
C         33.98441        25.25781        -0.05742
C         35.13119        27.29966         0.99973
C         34.01517        26.68730         0.25120
C         35.14762        28.78687         0.97974
C         33.99784        29.48571         0.69447
C         35.27003        31.63946         0.21665
C         33.97935        30.92559         0.35877
C         35.28289        33.11154         0.30153
C         33.96489        33.77938         0.29484
C         35.27675        36.05123         0.10325
C         33.96576        35.26809         0.28082
C         35.28022        37.42295         0.73266
C         34.02231        38.09030         0.85355
C         35.28304        40.25122         1.08999
C         33.99445        39.51444         1.03863
C         35.31013        41.73363         1.29984
C         34.00042        42.42851         1.46911
C         35.28548        44.56038         1.68166
C         34.05498        43.88182         1.22052
C         35.32409        46.04708         1.43442
C         34.24486        46.68866         0.67569
C         35.52786        48.82564         0.66009
C         34.42817        48.06215         0.25645
C         35.57536        50.25442         0.37108
C         34.65487        50.80351        -0.51784
C         35.15451        53.10753         0.38186
C         34.16134        52.21160        -0.31679
C         34.62754        54.46273         0.49549
C         33.69766        54.96800        -0.37462
C         37.68649        16.12733        -0.64418
C         36.48887        16.80422        -0.79167
C         37.68784        18.90933        -1.15299
C         36.47102        18.17580        -1.10578
C         37.65946        20.36928        -1.24912
C         36.46801        21.06442        -1.17790
C         37.69790        23.33512        -0.79604
C         36.41797        22.53832        -0.97273
C         37.75269        24.56364         0.04909
C         36.48301        25.07512         0.61390
C         37.73047        27.21954         1.30583
C         36.42128        26.49931         1.12413
C         37.71247        28.73861         1.33845
C         36.42921        29.51260         1.18104
C         37.75630        31.58219         0.26797
C         36.49176        30.93105         0.70474
C         37.74272        33.07375         0.15934
C         36.46811        33.81475         0.33702
C         37.74953        35.91571         0.48413
C         36.52386        35.25104         0.42121
C         37.77257        37.36903         0.70787
C         36.51183        38.08015         0.88428
C         37.72588        40.20450         1.33283
C         36.54993        39.49447         1.19978
C         37.76455        41.61687         1.81702
C         36.55147        42.44589         1.71060
C         37.80899        44.56980         2.14394
C         36.57557        43.81867         1.86585
C         37.67928        46.06559         2.16146
C         36.61083        46.73955         1.59919
C         37.66435        49.08132         2.12868
C         36.52559        48.22374         1.59307
C         37.56531        50.56494         1.85446
C         36.51426        51.13151         1.07397
C         37.10322        53.46524         1.96612
C         36.27655        52.57810         1.02077
C         37.40227        54.93241         1.58214
C         36.23234        55.86287         1.44051
C         37.59953        57.47058         0.27812
C         36.34943        57.04597         0.58454
C         40.16787        14.73958        -1.24869
C         40.16615        16.06800        -0.84774
C         38.91713        16.80729        -0.80050
C         40.22326        18.87024        -1.23187
C         38.91490        18.20800        -0.99591
C         40.25646        20.36119        -1.45402
C         38.94931        21.11769        -1.38032
C         40.28611        23.31513        -0.87302
C         38.98144        22.59924        -1.11464
C         40.21210        24.75066        -0.39610
C         38.94200        25.30999         0.17829
C         40.23435        27.24872         1.19831
C         38.98047        26.54241         0.88590
C         40.27647        28.78376         1.33522
C         38.98947        29.42340         0.94127
C         40.28526        31.61097         0.50919
C         39.03258        30.83528         0.44587
C         40.24358        32.99389         0.30223
C         39.02802        33.78480         0.27546
C         40.23572        35.95667         0.19836
C         38.99210        35.17669         0.36564
C         40.24760        37.43929         0.42440
C         38.96227        38.08064         0.77556
C         40.30518        40.30127         1.02501
C         38.97948        39.54609         0.93911
C         40.33912        41.68586         1.56904
C         39.07794        42.36849         2.00471
C         40.35439        44.46911         2.36629
C         39.03472        43.86055         2.18665
C         40.53034        45.70720         2.93726
C         38.67194        46.94296         2.75018
C         40.29919        48.77155         3.07286
C         38.87047        48.29963         2.58867
C         40.45762        50.27085         3.00255
C         38.41641        51.43391         2.58106
C         39.60945        53.54930         2.44374
C         38.40627        52.82239         2.36306
C         39.89131        54.63028         1.56698
C         38.73667        55.41093         1.11541
C         40.04142        57.49701         0.60184
C         38.79136        56.73639         0.64878
C         40.13244        58.86202         0.93663
C         42.59643        14.66039        -1.27781
C         41.36441        14.01908        -1.42346
C         42.68437        15.99801        -0.87991
C         41.44909        16.75135        -0.44007
C         42.69650        18.91182        -0.89054
C         41.48395        18.19430        -0.89308
C         42.76062        20.32371        -0.94083
C         41.58598        21.15891        -1.40946
C         42.81463        23.23052        -0.63366
C         41.51626        22.51339        -0.70294
C         42.79051        24.71678        -0.26396
C         41.50632        25.45783        -0.08333
C         42.78443        27.37060         1.16447
C         41.52462        26.73533         0.67636
C         42.78691        28.78212         1.26273
C         41.53811        29.50945         1.07134
C         42.76608        31.61509         0.67476
C         41.51800        30.87789         0.74064
C         42.76680        32.99905         0.53299
C         41.52196        33.71567         0.21721
C         42.70760        35.85911         0.89247
C         41.53054        35.20652         0.21082
C         42.70517        37.36604         0.79215
C         41.54356        38.11071         0.75349
C         42.80455        40.20449         1.17723
C         41.56727        39.52771         1.01765
C         42.81637        41.63252         1.40719
C         41.56209        42.31397         1.65860
C         42.95765        44.38384         2.30466
C         41.61453        43.67852         2.21990
C         42.99342        45.87683         2.44828
C         41.72373        46.58145         2.80195
C         42.76564        48.79452         2.10031
C         41.42913        48.01224         2.25684
C         42.91876        50.13785         2.80275
C         41.63367        50.95071         2.79798
C         42.71629        53.12800         2.12943
C         41.68414        52.40195         2.70746
C         42.53132        54.41710         1.46266
C         41.22088        54.83769         1.06259
C         42.51477        57.37149         0.58577
C         41.24582        56.82917         0.35106
C         42.57318        58.74119         0.91708
C         41.38878        59.46911         1.05952
C         45.15311        15.98019        -0.67773
C         43.95450        16.66596        -0.81805
C         45.29353        18.82628        -0.64032
C         43.97621        18.13942        -0.89711
C         45.19362        20.19995        -0.04964
C         43.93931        21.00027        -0.32565
C         45.25378        23.16926        -0.08568
C         44.06256        22.48629        -0.31887
C         45.20581        24.62543         0.12709
C         43.97761        25.29119         0.37062
C         45.20373        26.99392         1.59082
C         43.96681        26.54191         1.06292
C         45.25756        29.09355         1.72335
C         44.01469        29.57436         1.26695
C         45.25187        31.58992         0.60738
C         44.01433        30.92699         0.84222
C         45.22071        33.02037         0.41941
C         43.99352        33.73263         0.50229
C         45.17349        35.86490         0.28123
C         43.99428        35.15772         0.51140
C         45.12081        37.35157         0.24343
C         44.03349        37.99577         1.08880
C         45.26998        40.16029         0.90130
C         44.03194        39.49284         1.00131
C         45.30461        41.57100         1.31370
C         44.04884        42.32047         1.47294
C         45.31800        44.46086         1.43122
C         44.14455        43.72072         1.71496
C         45.31520        45.92214         1.55845
C         44.12242        46.59937         1.84522
C         45.35757        48.77715         2.10628
C         44.05534        48.07091         1.84539
C         45.37394        50.23487         1.98257
C         44.14658        50.96543         2.38036
C         45.25461        53.18159         1.60648
C         44.05153        52.46430         2.16374
C         45.10467        54.61907         1.08992
C         43.67090        55.14059         0.92789
C         44.83387        57.06111        -0.14799
C         43.66678        56.47975         0.49074
C         46.39882        16.63891        -0.47069
C         47.78919        18.72259        -0.22287
C         46.50065        18.00626        -0.38735
C         47.76808        20.16478         0.21349
C         46.45666        20.90622         0.36871
C         47.87539        23.00192         0.50917
C         46.50588        22.41344         0.32482
C         48.16509        24.31872         0.40394
C         46.34816        25.46431         0.21092
C         47.71978        27.27465         1.42524
C         46.43372        26.59455         1.02996
C         47.74306        28.78211         1.64791
C         46.52047        29.61689         1.32093
C         47.67518        31.53452         0.03181
C         46.48876        30.85302         0.62750
C         47.65656        33.02987        -0.02301
C         46.40739        33.76514         0.23893
C         47.63879        35.86619        -0.29532
C         46.39056        35.15767         0.09211
C         47.62219        37.39233        -0.36598
C         46.36400        38.13504        -0.03624
C         47.68555        40.23519         0.27635
C         46.46353        39.52426         0.47191
C         47.72699        41.64659         0.45021
C         46.59508        42.34729         1.07313
C         47.64118        44.52468         0.53706
C         46.51341        43.81286         0.99223
C         47.58666        45.99887         0.55515
C         46.51364        46.65021         1.30270
C         47.97712        48.80883         1.79737
C         46.65435        48.00730         1.84739
C         47.77523        50.26329         1.31734
C         46.53937        50.89566         1.51755
C         47.46895        52.91886         0.31922
C         46.47898        52.37663         1.28342
C         47.10008        54.02976        -0.57004
C         45.89355        54.87483        -0.20699
C         45.84278        56.29248        -0.62052
C         50.22791        18.58066         0.16265
C         49.06724        17.97171        -0.12942
C         50.27995        19.96535         0.71262
C         49.00426        20.73534         0.87331
C         50.31514        22.93481         0.76866
C         49.01082        22.23814         1.19523
C         50.51246        24.31662         1.34534
C         49.17258        25.03655         1.22557
C         50.34813        27.28297         1.26973
C         49.06119        26.51868         1.42417
C         50.34076        28.65220         1.38747
C         49.12927        29.36957         1.91458
C         50.18606        31.53248         0.24437
C         49.01919        30.89151        -0.05396
C         50.20340        33.01461         0.43587
C         48.91860        33.77287         0.26084
C         50.13675        35.90835        -0.07259
C         48.92896        35.20615        -0.05636
C         50.08925        37.35463        -0.27421
C         48.90766        38.09487        -0.25057
C         50.07140        40.28238        -0.32371
C         48.89201        39.54482        -0.14769
C         50.09419        41.70986        -0.17035
C         48.87316        42.40705         0.12116
C         50.07559        44.56533        -0.03016
C         48.85139        43.84276         0.19089
C         50.13119        45.97332         0.13221
C         48.91289        46.76757         0.37704
C         50.37590        48.52831         1.14721
C         49.07880        48.05782         1.05388
C         50.32911        50.64633         1.04591
C         48.97819        51.24911         1.27656
C         49.77064        52.88839        -0.55362
C         48.72064        52.36657         0.29587
C         49.43326        54.02876        -1.37624
C         48.18088        54.55273        -1.42042
C         52.88818        20.13136         0.80293
C         51.57134        20.71181         0.47667
C         52.79771        23.00141         0.33229
C         51.52638        22.26357         0.37637
C         52.82831        24.41144         0.41991
C         51.62925        25.13957         0.76316
C         52.76049        27.30866         0.62255
C         51.57899        26.55421         0.86791
C         52.81182        28.73111         0.75090
C         51.60116        29.50651         1.24100
C         52.74145        31.61172         0.28780
C         51.48351        30.79539         0.34065
C         52.68543        33.09471         0.23430
C         51.46079        33.77668         0.20089
C         52.64729        35.96283         0.09649
C         51.38736        35.19811         0.07309
C         52.62472        37.43712        -0.25379
C         51.32990        38.04881        -0.61642
C         52.59848        40.25530        -0.57238
C         51.31613        39.59483        -0.71114
C         52.61219        41.68496        -0.09689
C         51.30663        42.42916        -0.26644
C         52.52327        44.58743        -0.45600
C         51.30575        43.84497        -0.24205
C         52.53735        45.96587        -0.39797
C         51.36486        46.66456         0.01188
C         52.60981        48.85400         0.02421
C         51.45730        48.03877         0.36190
C         52.53137        50.29651        -0.08000
C         51.28160        51.04140         0.13185
C         52.18082        52.90048        -1.21220
C         51.04711        52.28973        -0.58499
C         54.02469        20.80685         0.53135
C         55.31235        22.97730        -0.15155
C         54.01309        22.21192         0.05201
C         55.26722        24.46628        -0.07408
C         54.04591        25.12560         0.20713
C         55.05892        27.32233        -0.40952
C         54.09209        26.60034         0.51549
C         55.02523        28.81609        -0.36958
C         53.94705        29.45904         0.40464
C         55.27724        31.65333         0.18239
C         54.04497        30.93778         0.74202
C         55.30255        33.13189         0.33782
C         53.95022        33.85261         0.33430
C         55.11016        35.97017        -0.34068
C         53.94633        35.27881        -0.02086
C         55.05044        37.37640        -0.71037
C         53.86032        38.09533        -0.70969
C         55.04045        40.24694        -0.86973
C         53.81405        39.55001        -0.80714
C         55.09187        41.68622        -0.58955
C         53.79256        42.41058        -0.69392
C         55.06708        44.63892        -0.76044
C         53.78136        43.88752        -0.80812
C         55.02937        46.01120        -0.68715
C         53.72764        46.75120        -0.88239
C         54.96554        48.92251        -0.69002
C         53.77010        48.19262        -0.42953
C         54.90199        50.34327        -0.79359
C         53.62512        50.99627        -0.64009
C         53.42349        52.32849        -1.14602
C         57.76920        23.04368        -0.09030
C         56.63462        22.34554         0.07975
C         57.73281        24.46856        -0.48485
C         56.45315        25.18047        -0.31666
C         57.60084        27.42208        -0.81410
C         56.38124        26.61190        -0.67329
C         57.56111        28.81207        -0.89322
C         56.29174        29.57031        -0.70042
C         57.69576        31.65875        -0.33760
C         56.37926        30.98757        -0.26773
C         57.73187        33.18054        -0.27776
C         56.46049        33.91030        -0.14896
C         57.60970        35.99164        -0.81595
C         56.39333        35.26925        -0.43279
C         57.58283        37.36520        -1.09452
C         56.27492        38.03248        -1.19078
C         57.54649        40.30308        -1.30782
C         56.26345        39.56883        -1.25223
C         57.53319        41.68202        -1.31551
C         56.35417        42.44589        -0.86890
C         57.48798        44.62185        -1.19765
C         56.31724        43.92999        -0.96536
C         57.57771        46.05238        -0.89980
C         56.26469        46.79264        -0.60774
C         57.39870        48.95172        -1.13726
C         56.21826        48.24843        -0.84886
C         57.30200        50.36879        -1.25541
C         56.10466        51.03734        -1.08677
C         60.33666        24.70743        -0.28663
C         59.00138        25.27877        -0.61240
C         60.13303        27.46307        -1.02774
C         58.91982        26.78649        -0.41948
C         59.91651        28.78477        -1.74734
C         58.76906        29.55681        -1.12738
C         60.03668        31.67828        -1.21369
C         58.84472        30.94883        -0.94248
C         60.06684        33.12281        -1.15589
C         58.90533        33.86878        -0.82982
C         60.03497        35.98248        -1.36290
C         58.85539        35.27751        -0.98425
C         60.01459        37.41945        -1.48867
C         58.77765        38.12093        -1.38343
C         59.98800        40.26871        -1.71861
C         58.77210        39.55510        -1.51627
C         59.99685        41.72252        -1.84497
C         58.70505        42.42181        -1.80542
C         59.96312        44.67232        -1.78902
C         58.67890        43.95337        -1.76411
C         59.94157        46.13855        -1.70147
C         58.74515        46.82863        -1.36033
C         59.84853        48.96017        -1.69257
C         58.67429        48.24658        -1.37407
C         61.43397        25.48354        -0.41432
C         61.33038        26.83912        -0.93442
C         61.16728        29.60342        -1.87534
C         61.19617        30.93812        -1.65345
C         61.23038        33.85742        -1.52676
C         61.21779        35.23190        -1.60003
C         61.20596        38.15657        -1.71732
C         61.19506        39.53174        -1.81960
C         61.13334        42.49950        -2.00492
C         61.11174        43.92530        -1.98323
C         61.08594        46.89934        -2.01067
C         61.03447        48.29207        -1.99110
O         51.48847        21.34567        -0.80474
O         49.45393        33.47863         1.61408
O         35.52839        26.65427         2.25607
O         56.08988        38.72986        -2.45991
O         47.47740        25.11592        -0.52239
O         35.17620        19.64335        -2.63962
O         30.80038        50.00036        -0.56261
O         40.19640        36.88567        -0.94149
O         41.75100        34.51607        -1.03462
O         35.39620        41.19549        -0.06819
O         32.67602        20.17779         1.09897
O         29.11589        38.48729        -0.99833
O         40.24868        19.47404        -2.59725
O         34.95671        55.27875         1.58866
O         47.53748        36.58255        -1.57326
O         49.58794        20.00569         2.01019
O         45.77639        53.86743        -1.24931
O         47.56733        27.85830         2.76086
O         24.42363        48.05836        -1.96038
O         42.41684        43.69237         3.46442
O         48.83818        25.55351         2.54460
O         38.94183        22.08515        -2.48472
O         26.49997        43.98539        -2.79750
O         43.28253        48.73743         0.74017
O         45.17388        27.98057         2.57870
O         45.30564        37.96696        -1.05554
O         27.16800        40.49961         1.24766
O         44.19051        20.32643         0.99523
O         37.67378        32.20029        -1.04101
O         27.01011        38.08016         1.89783
O         39.50414        46.28251         3.65271
O         34.93540        45.49971         2.75279
O         43.01864        24.28902        -1.63861
O         46.07192        48.13248         3.20599
O         52.23943        30.86120        -0.90194
O         44.38317        51.92851         3.48952
O         39.05626        29.69617        -0.50045
O         23.86915        39.67111        -2.27496
O         36.95047        55.85753         2.68163
O         31.69277        41.97288        -0.94402
O         40.25012        24.46959        -1.82887
O         38.43176        41.67082         3.13488
O         39.33461        50.94284         3.50647
O         58.39313        43.21847        -3.00650
O         32.04873        27.06467        -1.10436
O         58.04175        32.35246         0.90693
O         32.43900        22.74664         1.53552
O         36.48563        48.75686         2.96883
O         53.60128        43.01097        -2.00214
O         47.92210        46.68643        -0.70669
O         46.38313        53.12490         2.54476
O         54.71331        33.61130         1.59519
O         33.08826        42.03732         2.55436
O         52.66150        37.02131         1.14811
O         51.26539        38.71469        -1.89553
O         55.95837        42.05150         0.52750
O         46.28012        21.64338         1.58940
O         36.39381        30.64581         2.13698
O         39.57026        40.22631        -0.25656
O         29.06541        25.94229         2.14985
O         33.68146        34.51528        -0.96691
O         31.79596        45.80905        -1.74481
O         46.25689        41.81743         2.40506
O         27.36357        46.79781        -0.15912
O         40.31295        27.91447         2.49006
O         55.24515        29.39652        -1.70650
O         30.59575        44.51490         1.36265
O         23.09339        33.54589         1.37230
O         35.72653        24.23556         1.57818
O         50.65979        49.63920         1.96099
O         37.79782        27.97248         2.56037
O         36.89166        23.44859        -2.02442
O         28.88720        41.73033        -1.86722
O         42.73181        46.40227         3.82235
O         58.38079        24.74624        -1.80312
O         33.38530        24.90385        -1.34291
O         47.96041        19.84580        -1.19525
O         40.59033        53.06311         3.29026
O         49.22683        30.35425         2.63791
O         54.59488        22.41284        -1.29239
O         34.59946        31.11679        -0.97700
O         44.80658        18.66991        -2.00688
O         47.49659        32.24500        -1.25970
O         41.20107        55.52616        -0.17302
O         55.30618        26.79277        -1.70582
O         41.52433        26.74546        -0.80324
O         30.87615        31.10094         2.18319
O         57.16490        46.38865         0.47109
O         33.65750        49.62885        -2.63921
O         26.96104        35.55344         2.11655
O         33.07553        52.01665         0.67501
H         33.49016        51.79496         1.53719
O         36.31820        53.47132         3.18500
H         36.30198        54.40508         3.51435
O         40.89825        47.82098         0.93245
H         41.63972        47.98025         0.29668
O         48.85484        22.39383         2.61476
H         49.29465        21.62632         3.04598
O         59.00374        26.96700         1.03340
H         59.09549        27.92554         1.21988
O         48.44585        48.96428         3.16295
H         47.64947        48.87314         3.74358
O         22.24693        46.64706        -0.94558
H         22.38111        47.61776        -1.00526
O         42.51116        35.58461         2.32328
H         43.22537        36.08178         2.79379
O         49.02938        51.81137         2.61829
H         49.12950        51.04496         3.22969
O         54.72327        26.73332         1.84108
H         54.05351        26.50792         2.52186
O         43.14308        49.77149         4.18296
H         43.50686        50.56429         4.63948
O         44.38238        37.64597         2.49052
H         44.00341        38.33716         3.07560
O         52.87250        41.66004         1.34494
H         52.15956        41.14915         1.78261
O         41.86487        21.51725        -2.79070
H         41.04921        21.93536        -3.15401
O         31.63638        33.72653         2.67662
H         31.40829        32.79952         2.93951
O         25.42368        27.17269        -1.54462
H         26.19666        27.71011        -1.82125
O         59.50265        28.40932        -3.10186
H         59.20835        29.22166        -3.56451
O         26.34586        25.25957         2.43635
H         27.22681        25.56948         2.76384
O         33.19477        21.32109        -2.35838
H         33.70524        20.82679        -3.04299
O         45.69491        55.49384         2.08482
H         46.29645        54.93890         2.63829
O         51.87885        29.98400         2.57051
H         51.05199        30.39887         2.92165
O         50.89590        24.16005         2.74567
H         50.13719        24.48837         3.28781
O         33.97086        51.91518        -3.61100
H         34.29236        50.97917        -3.63838
O         54.20307        31.03288         2.17174
H         54.33052        31.98732         2.39609
O         28.12409        49.60349        -0.70558
H         27.85231        48.91661        -0.05458
O         49.01977        29.61543        -0.57098
H         48.16410        29.44963        -1.01688
O         53.55363        46.85127        -2.34533
H         53.43195        45.94143        -2.69419
O         41.46740        16.78302         1.04426
H         41.44452        15.85513         1.36141
O         35.40462        36.33912        -1.31974
H         35.00784        35.57555        -1.80320
O         40.47699        48.44211         4.45364
H         39.84768        48.97228         4.98541
H         22.71782        23.45793         0.78005
H         20.59949        24.74919         0.73280
H         20.62420        27.19342         0.38782
H         20.68739        28.97513        -0.38545
H         20.69450        31.41885        -0.49668
H         20.82457        33.34780        -1.05748
H         20.92805        35.75203        -1.26606
H         20.80684        37.66669        -0.76080
H         20.80650        40.06208        -1.05704
H         20.90310        42.00702        -1.34506
H         20.99349        44.46753        -1.60963
H         21.55268        45.86416        -3.47262
H         24.73579        47.99532        -5.33853
H         22.43892        47.15712        -5.22710
H         24.37834        22.55193        -0.06624
H         25.98708        50.24690        -4.68334
H         26.46197        21.28636         0.03607
H         28.19428        51.29666        -4.52500
H         30.21226        19.00949         0.38694
H         28.14071        20.24845         0.45213
H         31.84746        53.44424        -3.88853
H         29.76608        52.32021        -4.16084
H         31.82948        18.14918        -0.76355
H         32.60842        54.67008        -2.25282
H         33.85757        17.06587        -1.56319
H         33.32714        55.99133        -0.23245
H         37.67535        15.05263        -0.41941
H         35.54400        16.25393        -0.69145
H         37.73710        58.39302        -0.30432
H         35.44848        57.55415         0.21629
H         39.21859        14.24516        -1.49922
H         39.22209        59.44186         1.14205
H         43.51238        14.11285        -1.54149
H         41.32640        12.97546        -1.76215
H         43.54067        59.22635         1.10495
H         41.44286        60.53235         1.33092
H         45.14996        14.88222        -0.64058
H         44.79042        58.12781        -0.41167
H         47.28919        16.00958        -0.33299
H         46.62243        56.71550        -1.26852
H         51.17534        18.02423         0.10290
H         49.07483        16.92054        -0.45137
H         50.20295        54.44850        -2.03901
H         47.95346        55.36722        -2.12151
H         52.92358        19.12405         1.24330
H         52.06942        53.87737        -1.70183
H         54.99341        20.31409         0.69757
H         54.27430        52.85815        -1.59627
H         58.74288        22.54460         0.01394
H         56.68287        21.27226         0.31291
H         58.19885        50.96338        -1.47345
H         56.09897        52.13359        -1.16062
H         60.42973        23.64783        -0.01015
H         59.84918        50.05759        -1.70427
H         62.43466        25.07319        -0.21786
H         62.25079        27.31069        -1.30686
H         62.07008        29.10336        -2.25384
H         62.14117        31.47243        -1.81911
H         62.16654        33.33422        -1.75806
H         62.14497        35.74481        -1.88618
H         62.16883        37.63556        -1.79453
H         62.14471        40.05835        -1.98245
H         62.11850        42.02070        -2.09449
H         62.08353        44.43359        -2.05673
H         62.02772        46.40136        -2.27663
H         61.93709        48.87141        -2.22956
