         276
 CSIRO Nanostructure Databank - Neutral Graphene Oxide Data Set
C        -11.08921         0.57001        -0.80297
C         -9.89388         1.40675        -0.80346
C         -8.73542         0.89552         0.03062
C         -7.38115         1.47107        -0.45698
C         -6.26218         0.95974         0.53809
C         -4.87290         1.74073         0.41353
C         -3.68656         0.87562        -0.04904
C         -2.34005         1.53776        -0.13568
C         -1.06542         0.74488        -0.50585
C          0.17765         1.48602        -0.97672
C          1.19661         0.85862        -1.93691
C          2.60476         1.46537        -1.70978
C          3.71763         0.61751        -1.13422
C          5.01905         1.29537        -0.69674
C          6.29159         0.57562        -1.17552
C          7.53561         1.26995        -0.63955
C          8.44602         0.47392         0.21217
C          9.11188         1.04649         1.26349
C         10.05201         0.25590         2.02373
C         -9.83202         2.66521        -1.32916
C         -8.67700         3.53841        -1.14486
C         -7.41586         3.01156        -0.48050
C         -6.11991         3.58898        -1.12792
C         -4.92876         3.15180        -0.25275
C         -3.61861         3.82056        -0.50704
C         -2.37059         2.98597        -0.62340
C         -1.15303         3.68798        -1.15202
C          0.17005         2.97266        -1.09473
C          1.33381         3.76505        -1.71048
C          2.65641         2.96271        -1.66369
C          3.93548         3.70347        -1.31571
C          5.11286         2.78689        -1.00457
C          6.27671         3.45093        -0.80667
C          7.54759         2.75175        -0.47964
C          8.57794         3.42777         0.48556
C          8.83295         2.47785         1.68793
C         -8.73616         4.87036        -1.38388
C         -7.58202         5.83022        -1.17350
C         -6.19513         5.11385        -1.32881
C         -4.89613         5.89226        -1.18077
C         -3.57108         5.20941        -1.06681
C         -2.39727         5.91902        -1.05174
C         -1.09202         5.21597        -1.41949
C          0.16975         5.77386        -0.78783
C          1.31653         5.03999        -0.86253
C          2.46336         5.35768         0.02896
C          3.77798         4.70100        -0.17498
C          5.07883         5.33460         0.34299
C          6.14930         4.95000        -0.73791
C          8.29917         6.00195         0.47288
C          7.99815         4.73836         0.96093
C         -7.57842         6.52713         0.18286
C         -6.74745         7.58705         0.33290
C         -4.89238         7.31191        -0.85190
C         -3.70581         7.97512        -0.37666
C         -2.36996         7.37742        -0.75175
C         -1.10448         7.94197        -0.13803
C          0.26982         7.23314        -0.31959
C          1.08795         7.30480         0.98713
C          2.44784         6.64642         0.80015
C          3.71891         7.42847         0.93172
C          5.04146         6.81991         0.62353
C          6.20044         7.57853         0.87850
C          7.57649         7.22277         0.73509
C         -6.30692         8.25415         1.54540
C         -5.09354         8.83853         1.73651
C         -3.86856         8.86735         0.88736
C         -2.60306         9.17550         1.67315
C         -1.25966         8.86822         1.02932
C         -0.16673         9.29036         1.72131
C          1.15754         8.75319         1.42079
C          2.30806         9.45917         1.48538
C          3.56656         8.93911         0.83440
C          4.82629         9.62563         1.27980
C          6.01042         8.99048         1.26362
C        -11.17525        -0.61990        -0.15966
C        -10.00755        -1.24447         0.57535
C         -8.72408        -0.65066        -0.02427
C         -7.47264        -1.25784         0.58305
C         -6.18651        -0.56075         0.35856
C         -5.00519        -1.23496         0.30279
C         -3.79836        -0.43303         0.35204
C         -2.05643        -1.53118        -0.30632
C         -1.13617        -0.69810        -0.87834
C         -0.07183        -1.39377        -1.65590
C          1.19458        -0.67120        -2.01516
C          2.54631        -1.37536        -2.24473
C          3.71466        -0.85343        -1.42158
C          4.98901        -1.63943        -1.59995
C          6.32305        -0.90173        -1.47905
C          7.63897        -1.63037        -1.11179
C          8.65279        -0.93120        -0.18320
C          9.50751        -1.74633         0.71335
C         10.24696        -1.06586         1.75051
C         -9.94057        -2.76063         0.50630
C         -8.78442        -3.44868         0.65049
C         -7.47865        -2.73428         0.80942
C         -6.18028        -3.49108         0.63618
C         -4.90022        -2.74333         0.32765
C         -3.78314        -3.50809        -0.43416
C         -2.44041        -2.86814        -0.81578
C         -1.25945        -3.66096        -1.31480
C          0.07189        -2.86922        -1.27892
C          1.18977        -3.44482        -2.12359
C          2.42348        -2.87872        -2.16155
C          3.67064        -3.68549        -2.35745
C          4.90686        -2.83358        -2.28088
C          6.93505        -3.90057        -1.94221
C          7.72324        -3.11673        -1.08840
C          8.63407        -3.83655        -0.24563
C          9.51930        -3.11651         0.63337
C         -8.82602        -4.95709         0.83439
C         -7.46180        -5.61963         0.95033
C         -6.33950        -4.94827         0.17920
C         -4.98095        -5.63461         0.35788
C         -3.84835        -5.02725        -0.44621
C         -2.56120        -5.82385        -0.57770
C         -1.32069        -5.20973        -1.31871
C         -0.02449        -5.85687        -0.82441
C          1.10948        -5.53023        -1.47565
C          2.49098        -5.54137        -0.86709
C          3.65136        -5.19006        -1.84035
C          4.81844        -6.10437        -1.72127
C          6.89758        -5.28501        -1.87210
C          7.63332        -6.02090        -0.88860
C          8.58576        -5.24059        -0.16150
C         -7.34834        -6.82183         1.54219
C         -6.17526        -7.74508         1.31993
C         -4.89620        -6.98958         0.97159
C         -3.67098        -7.87119         0.78958
C         -2.43208        -7.07320         0.27866
C         -1.10852        -7.33173         0.96684
C          0.13935        -6.55515         0.50934
C          1.41856        -7.38263         0.57042
C          2.65732        -6.76484         0.04437
C          3.96379        -7.50648         0.13011
C          4.94999        -7.20962        -0.93958
C          6.17838        -8.12045        -1.14754
C          7.36767        -7.36893        -0.57897
C         -5.89048        -8.71275         2.44838
C         -4.65700        -9.20696         2.69316
C         -3.45402        -8.76071         1.99825
C         -2.22368        -9.26876         2.26284
C         -0.99288        -8.54739         1.83155
C          0.34279        -9.24135         2.00829
C          1.51987        -8.60688         1.27166
C          2.70723        -9.33290         1.32604
C          4.06123        -8.80291         0.93196
C          4.97490        -9.81776         0.29490
C          5.97261        -9.48298        -0.52898
O         -4.38258         4.07993         0.73136
O          2.89085         4.20533         0.86384
O         -2.69245        -1.13806         0.85733
O         -2.16641        -3.03293        -2.25181
O          8.86205        -1.05391        -1.63708
O          8.19921         2.13649        -1.63384
O         -5.53180         5.55205        -2.53641
O          5.86448        -5.85481        -2.64606
O         -2.54054        -7.17293        -1.16877
O          6.06034        -3.33514        -2.88243
O          3.14642         6.67053         2.08460
O          0.21886        -1.09819        -3.04135
O          1.01461        -4.73771        -2.62187
O          1.03846         7.92057        -1.27078
O         -7.55129        -1.80154         1.94977
O         -4.63542        -5.81014         1.77373
O          3.47876        -4.81559        -3.23920
O         -6.03553         8.05452        -0.83455
O          2.97166         2.22099        -2.89969
O          3.27525        -0.35161        -0.11908
O         -1.57508         8.35885        -1.46189
O         -3.86512         9.43536        -0.42382
O         -5.17895        -3.28547         1.65830
O          6.61791         5.74627        -1.52274
O          3.69761        -6.41008         1.06474
O         -1.38130         1.12789         0.86654
O         -4.28346        -4.25699        -1.58801
O         -2.05099         2.99644        -2.07189
O          6.41894         0.11918        -2.53652
O         -1.13635        -7.19407         2.43341
O          0.67286         2.32232         0.11138
O         -6.74143         1.17886         1.83285
O          9.40980         6.15954        -0.29178
H          9.43248         7.05482        -0.68128
O          0.37901         6.54742         1.99108
H          1.03475         6.26814         2.66697
O          3.39308         9.20757        -0.58689
H          2.51975         8.80467        -0.88609
O          0.64553        -9.32389         3.40718
H          0.55620        -8.42489         3.78676
O         -8.76111        -1.09296        -1.40010
H         -8.12472        -0.54386        -1.91854
O         -6.73302        -4.92346        -1.20477
H         -6.90111        -5.84231        -1.50014
O         -2.68850         8.41511         2.88945
H         -1.78878         8.29926         3.26018
O         -9.64461        -5.28009         1.96258
H         -9.27683        -4.82729         2.74905
O         -7.41150         3.53066         0.86030
H         -7.32862         2.75840         1.49757
O         -1.48926        -5.56729        -2.69414
H         -2.14593        -4.94830        -3.08426
O         -1.04500         5.41820        -2.84893
H         -0.49827         6.21395        -3.02552
O          0.52366        -2.87903         0.09734
H         -0.02810        -2.25520         0.61892
O         -3.99015        -8.86502        -0.22941
H         -3.70024        -8.49732        -1.10092
O          9.80808         3.59430        -0.20837
H          9.75142         3.08017        -1.04776
O          5.33830         4.66542         1.59562
H          4.46002         4.54774         2.03217
O          2.52835        -4.41841         0.05644
H          1.86151        -4.58550         0.77045
O          7.66853         2.48712         2.51850
H          7.77681         1.81646         3.22261
O         -4.45594         1.98067         1.76776
H         -5.21175         1.68615         2.34728
O          1.09005         4.11023        -3.06930
H          0.96541         3.26414        -3.56063
O          4.26563         4.50182        -2.46608
H          4.19106         3.92977        -3.26125
O          0.32704        -5.45185         1.45647
H          0.07712        -5.80182         2.34658
O         -6.57629        -8.53572         0.16435
H         -5.78969        -9.08066        -0.09208
O          6.37365        -8.40018        -2.54772
H          6.37740        -7.54491        -3.03884
O         -8.97858         1.38093         1.35276
H         -9.46680         0.68538         1.86752
O         -7.13923         0.91126        -1.74997
H         -6.64132         1.54065        -2.32697
O          0.74232         1.32983        -3.22649
H          1.27085         0.87662        -3.91821
O         -7.70573         6.82955        -2.18930
H         -6.98003         6.70075        -2.84353
O          5.09385         1.21743         0.75040
H          4.37226         0.62037         1.05891
O          4.69886        -8.47333         2.20724
H          4.33608        -7.59400         2.46770
O          2.89661        -1.09005        -3.62374
H          2.18184        -1.45274        -4.19182
O        -10.11573        -0.91679         1.99075
H         -9.31546        -1.31417         2.42165
O         -5.88025         3.03946        -2.44183
H         -5.44471         3.74305        -2.98411
H         10.95343        -1.65733         2.35095
H         10.61265         0.74275         2.83494
H          9.71720         2.86421         2.26918
H          7.22102         4.65097         1.73320
H          8.23132         8.11220         0.66186
H          6.91673         9.54218         1.55816
H          4.77090        10.68493         1.57229
H          2.28025        10.52413         1.76620
H         -0.28646        10.00255         2.55508
H         -2.63388        10.27731         1.93023
H         -4.91208         9.23694         2.74723
H         -6.99964         8.22781         2.40053
H         -8.13253         6.10751         1.03297
H         -9.65183         5.32040        -1.79615
H        -10.70444         3.08762        -1.85343
H        -11.97519         0.96104        -1.32889
H        -12.12885        -1.17061        -0.17132
H        -10.89001        -3.31888         0.47280
H         -9.33287        -5.40964        -0.06193
H         -8.23865        -7.25064         2.03087
H         -6.74827        -9.08562         3.02882
H         -4.51824        -9.94721         3.49683
H         -2.09496       -10.02570         3.05246
H          0.22728       -10.29555         1.64361
H          2.70709       -10.26418         1.91291
H          4.88491       -10.85664         0.64826
H          6.65182       -10.26610        -0.89940
H          7.94610        -7.82815         0.23782
H          9.24267        -5.74631         0.56076
H         10.14910        -3.69479         1.32540
