         244
 CSIRO Nanostructure Databank - Neutral Graphene Oxide Data Set
C          1.31296         2.10991        -0.01969
C          1.28507         3.49903        -0.14312
C          2.52244         1.42894         0.09570
C          2.48102         4.25824        -0.15444
C          1.26159         6.43458        -0.39473
C          1.25087         7.80554        -0.47446
C          2.47776         5.69874        -0.28446
C          2.46068         8.56550        -0.50221
C          1.22014        10.73092        -0.64200
C          1.19170        12.08305        -0.74248
C          2.45836         9.98792        -0.59799
C          2.42890        12.86415        -0.74275
C          1.17718        15.02047         0.19557
C          1.21474        16.32446         0.61855
C          2.39948        14.32829        -0.24290
C          2.43253        17.06914         0.69521
C          2.47969        18.47518         0.77875
C          3.74484         2.14105         0.08710
C          3.72509         3.57159        -0.03851
C          4.98254         1.45935         0.18971
C          4.95184         4.30474        -0.01065
C          3.70517         6.41397        -0.27175
C          3.70585         7.86003        -0.43684
C          4.92548         5.70703        -0.09276
C          4.91627         8.56873        -0.58093
C          3.69275        10.70154        -0.65825
C          3.71020        12.13079        -0.65533
C          4.93308         9.98180        -0.72043
C          4.93352        12.82460        -0.55758
C          3.69361        14.85349         0.26395
C          3.70146        16.33420         0.68318
C          4.95613        14.23624        -0.19402
C          4.95404        17.06436         0.52545
C          3.68549        19.16409         0.77386
C          4.94418        18.49508         0.61806
C          6.21295         2.14271         0.15788
C          6.21957         3.59762         0.08047
C          7.42413         1.42068         0.13455
C          7.42584         4.29198         0.00620
C          6.17953         6.50122         0.18007
C          6.20510         7.77965        -0.66662
C          7.45783         5.72337        -0.05187
C          7.41503         8.66679        -0.29878
C          6.16405        10.72315        -0.84304
C          6.16823        12.10277        -0.69901
C          7.42652         9.94480        -1.18221
C          7.46050        12.83540        -0.39534
C          6.13298        14.95738        -0.09283
C          6.14289        16.36613         0.22841
C          7.39178        14.35335        -0.68501
C          7.37799        17.07781         0.21539
C          6.15713        19.19987         0.54951
C          7.40358        18.51994         0.39301
C          8.68203         2.06059        -0.03989
C          8.74584         3.56056         0.12469
C          9.83537         1.33994        -0.25307
C          9.84741         4.20308        -0.69888
C          8.64560         6.42412        -0.25741
C          8.69635         7.85807        -0.34822
C          9.88362         5.70060        -0.64853
C          9.91337         8.51218        -0.39114
C          8.75581        10.71317        -1.02708
C          8.74453        12.24301        -1.00640
C          9.98178         9.97453        -0.60652
C          9.94776        12.86922        -0.30503
C          8.66136        15.00323        -0.16148
C          8.60511        16.34978         0.16330
C          9.88917        14.24404        -0.02418
C          9.79047        17.09073         0.70975
C          8.61525        19.21839         0.36253
C          9.90969        18.48854         0.11319
C         11.12651         1.92023        -0.77147
C         11.14679         3.45252        -0.80768
C         12.35858         1.32375        -0.14037
C         12.41231         4.20880        -0.50726
C         11.17861         6.39330        -0.44794
C         11.16497         7.80235        -0.27538
C         12.36851         5.67029        -0.25736
C         12.35730         8.50710         0.04840
C         11.17715        10.69990        -0.11947
C         11.14124        12.11775        -0.02615
C         12.34554         9.96929         0.19847
C         12.32864        12.80177         0.39727
C         11.07827        14.92840         0.44887
C         11.06818        16.31995         0.64787
C         12.30376        14.20807         0.60479
C         12.21783        17.01185         1.08619
C         11.17464        19.17308         0.59528
C         12.26825        18.48436         1.01475
C         13.56066         2.01902         0.01804
C         13.60322         3.45154        -0.09376
C         14.78095         1.31997         0.32934
C         14.79104         4.15891         0.17253
C         13.56074         6.34874         0.11768
C         13.53351         7.76318         0.27392
C         14.79024         5.59385         0.27670
C         14.73564         8.46244         0.76842
C         13.52474        10.66752         0.58575
C         13.53455        12.09008         0.66002
C         14.77267         9.95017         0.75770
C         14.74473        12.81962         0.95128
C         13.46947        14.87594         1.09225
C         13.29812        16.21830         1.50268
C         14.74651        14.19677         1.12447
C         15.14299        17.26457         1.31709
C         13.58704        19.23765         1.27150
C         14.82699        18.52291         0.73674
C         15.99555         1.98848         0.42699
C         16.00972         3.42814         0.34415
C         17.25119         1.29407         0.62795
C         17.23041         4.13025         0.41385
C         16.01345         6.24644         0.54516
C         16.00472         7.67956         0.92085
C         17.22638         5.53450         0.53097
C         17.33565         8.42465         1.01551
C         15.96360        10.61409         0.89538
C         16.03451        12.08046         1.24057
C         17.20737         9.86769         0.57092
C         17.25127        12.80192         0.66548
C         16.10848        14.92028         1.34366
C         16.09423        16.37350         0.84358
C         17.26917        14.15725         0.68631
C         17.06038        16.91973        -0.04178
C         15.68335        18.98912        -0.24492
C         16.85666        18.23625        -0.58579
C         18.45425         1.96178         0.68073
C         18.48958         3.40612         0.51610
C         19.74205         1.28219         0.77299
C         19.67870         4.08233         0.42068
C         18.55729         6.24805         0.69083
C         18.42278         7.69593         0.20349
C         19.64695         5.50382        -0.08809
C         19.75106         8.42604         0.16062
C         18.47746        10.57249         0.25636
C         18.52333        12.03331         0.54661
C         19.76350         9.81557         0.16899
C         19.80583        12.74600         0.20748
C         18.55399        14.96582         0.54149
C         18.30474        16.24544        -0.24345
C         19.72321        14.19222        -0.04732
C         19.32985        16.86986        -0.92890
C         17.84080        18.76692        -1.44242
C         19.08093        18.11242        -1.61582
C         20.91127         1.95772         0.81129
C         20.96462         3.46357         0.86570
C         22.15161         4.10566         0.18831
C         20.96488         6.24813        -0.01687
C         20.96816         7.65760        -0.02100
C         22.14991         5.43193        -0.12204
C         22.17825         8.41833        -0.19966
C         20.96872        10.55088        -0.13400
C         20.93908        11.95648        -0.31846
C         22.16877         9.78271        -0.30622
C         21.97001        12.68697        -0.97162
C         20.74704        14.81663        -0.71774
C         20.74136        16.34164        -0.78617
C         21.87563        14.04651        -1.17156
C         21.68799        16.93701        -1.78778
C         20.09642        18.66275        -2.43294
C         21.36106        18.03590        -2.53672
O         17.55578        10.18780        -0.84677
O         19.46554        12.35237         1.60662
O          9.70724        10.27571        -2.06830
O         14.26996        16.81218         2.31594
O          3.71409        15.21655         1.66449
O         11.97437         3.90776        -1.91241
O         16.46595        14.85289         2.71500
O          2.44031        14.00369        -1.66836
O          9.56957         4.94473        -1.90253
O         15.17177         7.93510         2.10225
O         17.71578         8.47859         2.40978
H         16.88100         8.60912         2.92077
O         10.05020        18.34137        -1.33517
H          9.94298        19.22621        -1.74188
O         21.20331        16.78015         0.53543
H         20.57877        16.39784         1.20027
O          9.52649        17.29431         2.13358
H          9.52017        16.41689         2.57027
O         16.22023        12.13745         2.68573
H         16.33728        13.11492         2.91340
O         19.30672         5.39163        -1.49365
H         18.87437         6.23828        -1.76678
O          9.20614         3.77476         1.50877
H          8.61665         3.26095         2.10079
O         18.99086         6.19103         2.06648
H         18.54488         6.92732         2.55971
O          7.26133        14.64976        -2.09278
H          7.96492        14.15490        -2.57682
O         13.50679        20.55801         0.74736
H         13.44124        20.50260        -0.22749
O          7.63996        12.69033         1.04083
H          6.79319        12.91169         1.48306
O         11.19712         1.46113        -2.16403
H         11.68488         2.16121        -2.66021
O          6.12077         6.85865         1.60021
H          6.11525         6.02639         2.11839
O          7.31208         9.62273        -2.58729
H          8.23480         9.53888        -2.93178
O          6.33346         7.28390        -2.01394
H          6.49069         8.06210        -2.60569
O         17.91910         7.61834        -1.15960
H         17.83577         8.55351        -1.48504
O          7.27242         9.18496         1.04259
H          6.98006         8.44172         1.62480
O          8.83885        12.63567        -2.39976
H          9.46615        12.00111        -2.82169
O         21.06760         3.82797         2.29628
H         20.59234         4.68383         2.41402
O         18.94137        15.37142         1.88559
H         18.12354        15.24830         2.46593
H          0.36804         1.54871        -0.01496
H          0.31119         3.99763        -0.23385
H          2.53670         0.33401         0.19185
H          0.30054         5.90351        -0.39904
H          0.28042         8.31465        -0.53688
H          0.26614        10.18789        -0.63331
H          0.23426        12.61283        -0.83864
H          0.20622        14.52714         0.04917
H          0.26915        16.84824         0.82471
H          1.53522        19.03572         0.83891
H          4.98302         0.36129         0.25747
H          3.68232        20.26086         0.84918
H          7.38360         0.32122         0.10505
H          6.15216        20.29595         0.63823
H          9.76843         0.24043        -0.27399
H          8.60813        20.31795         0.42576
H         12.36721         0.22938        -0.01910
H         11.25622        20.26269         0.44600
H         14.74798         0.22455         0.42289
H         13.71624        19.33473         2.38258
H         17.23078         0.19616         0.70318
H         15.51405        19.96244        -0.72933
H         19.74074         0.18103         0.78409
H         17.67612        19.74372        -1.92202
H         21.86207         1.40692         0.88077
H         23.08283         3.52590         0.09824
H         23.09153         5.89564        -0.45677
H         23.13318         7.88591        -0.30709
H         23.11620        10.30959        -0.48691
H         22.85301        12.15452        -1.35237
H         22.69563        14.55739        -1.69394
H         22.71332        16.54386        -1.84035
H         19.90117        19.59134        -2.98829
H         22.11047        18.47204        -3.21375
