         720
 CSIRO Nanostructure Databank - Neutral Graphene Oxide Data Set
C         23.24678        27.21846        -2.16339
C         23.20903        28.55651        -2.26315
C         23.10636        31.52701        -1.45972
C         23.10269        32.88788        -1.35675
C         23.03327        35.86612        -1.20145
C         22.95221        37.22029        -1.27191
C         23.08885        40.16813        -0.48792
C         23.08366        41.46911        -0.15371
C         22.99282        44.37760         0.53309
C         23.00522        45.73596         1.04128
C         25.77694        24.42163        -2.53940
C         24.59630        25.03316        -2.32741
C         25.79108        27.26237        -1.95401
C         24.50426        26.46257        -1.94528
C         25.72450        28.72376        -2.07670
C         24.41777        29.46053        -2.31752
C         25.61366        31.48244        -1.28080
C         24.32302        30.65324        -1.29114
C         25.57526        32.98098        -1.15402
C         24.28466        33.69209        -1.21235
C         25.50389        35.83909        -1.32179
C         24.27680        35.11059        -1.26740
C         25.45487        37.30549        -1.51546
C         24.13528        38.05329        -1.56136
C         25.41389        40.35024        -1.53475
C         24.12960        39.56436        -1.35644
C         25.45725        41.74920        -0.88460
C         24.07940        42.45732        -0.73050
C         25.35966        44.60532         0.07790
C         24.11900        43.77388         0.05842
C         25.47051        45.68820         1.13533
C         24.16554        46.43792         1.24337
C         25.38933        48.51685         1.66554
C         24.21205        47.82847         1.62246
C         28.51803        22.94589        -2.57063
C         28.41347        24.41366        -2.71115
C         27.06492        25.15345        -2.61260
C         28.23403        27.35299        -2.24449
C         27.06658        26.59268        -2.26696
C         28.17079        28.76157        -2.00436
C         26.91500        29.42929        -1.99450
C         28.10004        31.63335        -1.57893
C         26.84186        30.94347        -2.04548
C         28.02459        33.06899        -1.45917
C         26.82548        33.74524        -1.39212
C         27.98939        35.92864        -1.43520
C         26.77365        35.19454        -1.38667
C         28.00104        37.38249        -1.17729
C         26.66739        38.10372        -1.18012
C         27.89941        40.07917        -1.83299
C         26.67706        39.52795        -1.57046
C         27.97213        42.23930        -1.47331
C         26.67672        42.63100        -0.87021
C         27.91664        44.68083        -0.04038
C         26.62873        44.06442        -0.45068
C         27.94076        45.91926         0.57383
C         26.70226        46.56159         0.98588
C         27.88346        48.71337         1.28515
C         26.66635        47.90913         1.32081
C         27.88251        50.08918         1.27140
C         30.91027        23.05625        -1.94255
C         29.68953        22.33436        -2.27544
C         30.87001        24.47793        -1.89434
C         29.67301        25.19305        -2.43156
C         30.67191        27.39141        -1.56393
C         29.56498        26.68475        -2.28470
C         30.72743        28.87561        -1.71077
C         29.40788        29.56811        -1.91540
C         30.51770        31.69385        -1.08277
C         29.32275        30.99520        -1.55097
C         30.46079        33.07769        -0.98896
C         29.31919        33.78683        -1.67917
C         30.42202        35.95534        -1.18229
C         29.24768        35.26224        -1.39874
C         30.53806        37.39447        -1.59582
C         29.24715        38.15082        -1.37161
C         30.45203        40.36860        -1.56631
C         29.20771        39.50960        -1.56504
C         30.43773        41.87761        -1.25340
C         29.17241        42.64662        -0.98268
C         30.40288        44.59307         0.09607
C         29.18650        44.12893        -0.63788
C         30.40542        46.03893         0.43457
C         29.20328        46.63829         0.73129
C         30.41599        48.82334         0.96738
C         29.21180        47.99623         1.38490
C         30.33310        50.24734         1.06648
C         29.09179        50.84466         1.22880
C         33.35299        20.29170        -1.35385
C         32.29956        20.96262        -1.86608
C         33.23061        23.11211        -1.09752
C         32.10114        22.37860        -1.59339
C         33.19498        24.53516        -1.09752
C         32.00328        25.19756        -1.48212
C         33.20805        27.46004        -1.26774
C         31.92235        26.66185        -1.25438
C         33.03047        28.88415        -0.77261
C         31.84933        29.57769        -1.03348
C         32.83006        31.63515        -0.13673
C         31.72221        30.96585        -0.71733
C         32.74144        33.08546         0.14012
C         31.48604        33.82903        -0.26433
C         32.86879        35.98058        -0.58310
C         31.50443        35.35805        -0.33067
C         32.85916        37.47781        -0.65092
C         31.73523        38.13464        -1.06720
C         32.78722        40.29990        -0.46182
C         31.81798        39.61287        -1.44317
C         32.86982        41.80924        -0.62886
C         31.70895        42.51017        -0.75546
C         32.92130        44.64627        -0.02293
C         31.67177        43.87242        -0.14508
C         32.85673        46.06335         0.18494
C         31.66232        46.75594         0.43047
C         32.82789        48.98517         0.44348
C         31.61642        48.19764         0.59523
C         32.85306        50.33693         0.72557
C         31.55037        51.10868         0.76334
C         32.85589        52.99518         1.72582
C         31.66674        52.34333         1.61232
C         35.66446        18.77374        -0.12715
C         35.44532        20.21613         0.16158
C         34.16688        20.94958        -0.26806
C         35.53639        23.14532        -0.22965
C         34.37146        22.42515        -0.58386
C         35.54570        24.58110        -0.30602
C         34.36000        25.28468        -0.67388
C         35.46859        27.41733        -0.16264
C         34.34246        26.69649        -0.62998
C         35.34014        28.83692         0.07719
C         34.14467        29.55285        -0.17178
C         35.16573        31.66468         0.72965
C         34.02517        30.94909         0.17828
C         35.10468        33.16406         1.04148
C         33.97358        33.83934         0.33032
C         35.16350        36.05594         0.58194
C         34.06696        35.23725        -0.07144
C         35.37829        37.39837        -0.15272
C         34.10365        38.20050        -0.37305
C         35.31611        40.31578         0.06342
C         34.11634        39.56695        -0.39844
C         35.31094        41.80104         0.14196
C         34.19919        42.54253        -0.56788
C         35.37684        44.67557         0.08670
C         34.13528        43.98687        -0.13797
C         35.39287        46.09246         0.07888
C         34.10490        46.80805        -0.09397
C         35.35242        49.06507         0.03748
C         34.06101        48.30985        -0.03283
C         35.31652        50.46341         0.46639
C         34.10418        51.08822         0.78322
C         35.32222        53.21779         1.26007
C         34.08411        52.45812         1.21131
C         35.33533        54.63417         1.48574
C         37.93296        18.84242         0.93596
C         36.80675        18.13844         0.19296
C         37.97241        20.26526         0.46937
C         36.72758        21.01483         0.42634
C         37.94196        23.17544         0.35921
C         36.73936        22.47902         0.18840
C         37.97838        24.58772         0.19064
C         36.74859        25.31322        -0.03154
C         37.92891        27.59472         0.22524
C         36.69301        26.72405         0.07131
C         37.66135        28.77755         1.12919
C         36.38672        29.51104         0.85526
C         37.61840        31.69997         1.00926
C         36.32593        30.97877         1.00070
C         37.61850        33.16148         1.02051
C         36.43856        33.89042         0.91571
C         37.68743        36.02976         0.70785
C         36.47311        35.30649         0.72502
C         37.76347        37.43599         0.57898
C         36.47472        38.21694         0.56045
C         37.83347        40.32705         0.49997
C         36.64575        39.59332        -0.08885
C         37.79679        41.78230         0.58660
C         36.59753        42.51760         0.33368
C         37.75587        44.67181         0.70635
C         36.58666        43.94128         0.34204
C         37.75730        46.07064         0.71577
C         36.59256        46.79221         0.31208
C         37.85986        48.96102         0.68195
C         36.65203        48.25974         0.19592
C         37.79071        50.41178         0.91839
C         36.61428        51.22662         0.37448
C         37.81211        53.32906         1.33720
C         36.54385        52.59220         0.99101
C         37.72328        54.79835         1.01041
C         36.49235        55.39786         1.23474
C         40.47813        16.04667         1.17285
C         39.29009        16.74244         1.10415
C         40.47676        18.88977         1.01161
C         39.28336        18.14945         0.94177
C         40.55403        20.18638         0.16950
C         39.20480        20.98858         0.01664
C         40.47380        23.07564         0.63575
C         39.16404        22.35092         0.77464
C         40.48711        24.54981         0.61431
C         39.23853        25.31547         0.31268
C         40.28374        27.43943         1.36322
C         39.23413        26.85609         0.53794
C         40.13480        28.77789         1.95953
C         38.85572        29.51732         1.68212
C         40.17118        31.70039         1.49053
C         38.93161        30.96779         1.32014
C         40.21342        33.06464         0.84379
C         38.92505        33.83514         1.11799
C         40.22519        35.98147         0.45451
C         38.95811        35.32269         0.96024
C         40.22751        37.47166         0.71000
C         38.98888        38.15404         0.69029
C         40.22682        40.29810         1.30944
C         38.96973        39.61198         0.79489
C         40.24761        41.77586         0.96867
C         38.99430        42.46727         0.83466
C         40.24434        44.63569         0.93635
C         38.96381        43.91738         1.22277
C         40.30101        46.05231         1.23299
C         38.97609        46.81439         1.11870
C         40.31159        48.96636         0.97437
C         39.02917        48.27904         0.93662
C         40.34016        50.37959         0.94330
C         39.09759        51.14611         1.14752
C         40.22301        53.26528         0.59123
C         39.08027        52.61233         0.92207
C         40.20719        54.72301         0.29650
C         38.92803        55.52405         0.54951
C         40.30287        57.57561         0.59730
C         39.10523        56.96589         0.78870
C         42.92162        16.05548         1.49244
C         41.69510        16.75800         1.34029
C         42.87316        18.81834         1.90944
C         41.68299        18.18641         1.40067
C         42.81614        20.16417         2.55907
C         41.75969        21.06591         0.48231
C         42.88436        23.11353         1.37885
C         41.71533        22.34599         1.03205
C         42.89892        24.50773         1.40993
C         41.59367        25.21672         1.35479
C         42.74033        27.34994         2.18332
C         41.48197        26.65458         1.73723
C         42.71732        28.85232         2.35978
C         41.38713        29.62535         2.34830
C         42.74272        31.64315         1.52869
C         41.43024        30.93036         1.58160
C         42.69409        33.14264         1.61121
C         41.39918        33.87509         1.33486
C         42.66050        35.98871         1.03221
C         41.46067        35.29878         0.97887
C         42.68720        37.42955         0.81193
C         41.47184        38.15074         0.75200
C         42.67907        40.29697         0.79824
C         41.50882        39.60525         0.87911
C         42.72455        41.73012         1.28058
C         41.44222        42.45122         0.92201
C         42.70300        44.60560         1.16485
C         41.49309        43.90676         0.52868
C         42.70670        46.07729         0.78239
C         41.55627        46.79792         0.95513
C         42.73313        48.94386         0.50618
C         41.53290        48.24557         0.81237
C         42.72174        50.35674         0.38128
C         41.53687        51.06391         0.63572
C         42.79435        53.27275         0.32558
C         41.52805        52.54805         0.65192
C         42.71324        54.70458        -0.08432
C         41.48317        55.45880         0.22433
C         42.78129        57.53805         0.19476
C         41.51035        56.84013         0.27089
C         44.09285        16.71814         1.78895
C         45.26003        18.78693         2.77016
C         44.06874        18.10848         2.07361
C         45.35783        20.25986         2.42894
C         44.08172        21.00554         2.47377
C         45.39968        23.04078         1.60003
C         44.08472        22.41719         1.92479
C         45.39371        24.57581         1.63007
C         44.08370        25.28266         1.72771
C         45.21027        27.30100         2.69287
C         44.04096        26.63849         1.98565
C         45.25911        28.85807         2.58076
C         43.99954        29.61735         2.27665
C         45.21031        31.77463         1.88100
C         44.00414        30.96181         1.95196
C         45.17891        33.13213         1.55400
C         43.94913        33.88721         1.44363
C         45.11121        35.98750         0.79641
C         43.89920        35.26272         1.21372
C         45.13074        37.45405         0.71626
C         43.94145        38.13882         0.72232
C         45.23719        40.33050         0.71648
C         43.94502        39.60944         0.34345
C         45.24880        41.73756         0.84365
C         43.99235        42.48570         0.91912
C         45.25396        44.64824         0.99914
C         43.98193        43.84778         0.88671
C         45.21404        45.97003         0.26064
C         43.91686        46.73742         0.26649
C         45.18727        48.85953         0.11101
C         43.97410        48.21247         0.26428
C         45.24111        50.36120         0.30692
C         43.95953        51.03130        -0.19543
C         45.23712        53.21098        -0.15853
C         44.02279        52.52727        -0.00185
C         45.28374        54.65745        -0.11596
C         44.02573        55.44656        -0.22480
C         43.96543        56.89821         0.01743
C         47.71115        18.70440         2.23435
C         46.55942        18.06762         2.55450
C         47.79396        20.13767         2.11209
C         46.57185        20.90199         2.21012
C         47.83629        23.04168         1.94344
C         46.63885        22.33860         1.94912
C         47.83742        24.48794         2.01311
C         46.64414        25.21601         2.03015
C         47.86017        27.44444         2.21479
C         46.58416        26.64228         2.43205
C         47.81392        28.89984         1.98172
C         46.56749        29.60985         2.38101
C         47.78320        31.78263         1.73881
C         46.50874        31.10106         2.15837
C         47.68415        33.14950         1.22952
C         46.45662        33.94683         1.56704
C         47.64842        36.01003         0.62608
C         46.38219        35.23958         0.76337
C         47.68760        37.38144         0.64262
C         46.41542        38.14645         0.31092
C         47.70055        40.28555         0.75792
C         46.45427        39.61795         0.65418
C         47.71301        41.70039         0.88279
C         46.49899        42.43391         0.86301
C         47.67528        44.58348         0.44084
C         46.51932        43.87976         0.73664
C         47.69436        46.01335         0.17236
C         46.47345        46.73145         0.15618
C         47.65675        48.82995        -0.27997
C         46.43584        48.13329        -0.00945
C         47.62901        50.27069        -0.48823
C         46.47853        51.02583        -0.27334
C         47.68688        53.19311        -0.48256
C         46.47242        52.46765        -0.34287
C         47.70430        54.58241        -0.30616
C         46.51553        55.30262        -0.12885
C         50.15369        20.12268         1.40770
C         49.02269        20.80433         1.86281
C         50.38202        22.96109         1.66823
C         49.12395        22.27287         2.24361
C         50.36778        24.45389         1.49246
C         49.14444        25.20932         1.97017
C         50.00769        27.34920         0.82129
C         49.11403        26.70109         1.83176
C         50.08988        28.83326         0.91022
C         48.93613        29.55852         1.46039
C         50.11976        31.68287         0.93427
C         48.97056        30.99131         1.37253
C         50.06172        33.06904         0.75109
C         48.80918        33.75619         0.72443
C         50.38246        36.07527         1.37334
C         48.72288        35.11384         0.11182
C         50.19339        37.42250         0.76627
C         48.95318        38.11275         0.69278
C         50.20857        40.21253         0.72666
C         48.96289        39.53696         0.69499
C         50.30928        41.67860         1.09971
C         48.98591        42.44713         1.01798
C         50.18829        44.59458         0.13406
C         48.97589        43.91552         0.63192
C         50.16557        45.93356        -0.22394
C         48.90770        46.69208        -0.14316
C         50.07210        48.75188        -0.94755
C         48.85490        48.08143        -0.42857
C         50.14006        50.22229        -0.93256
C         48.85998        50.94573        -0.95232
C         50.24510        53.07382        -0.74266
C         48.91266        52.47914        -0.89964
C         51.33375        20.77993         0.99149
C         52.53665        22.86321         0.35333
C         51.44695        22.15882         1.00983
C         52.30434        24.18124        -0.12438
C         51.46865        25.18780         0.69156
C         52.17754        27.40187        -0.45325
C         51.05876        26.56239         0.09402
C         52.31770        28.77260        -0.15344
C         51.22985        29.48636         0.48857
C         52.41696        31.61177        -0.19043
C         51.43786        30.95498         0.77422
C         52.34327        33.08317        -0.36001
C         51.22528        33.84246         0.25634
C         52.59453        35.97230         0.15429
C         51.55530        35.19253         0.91332
C         52.61750        37.33948         0.18611
C         51.40648        38.09905         0.50418
C         52.73781        40.18812         0.48586
C         51.41679        39.50931         0.54502
C         52.76702        41.69585         0.34804
C         51.41824        42.33993         0.26606
C         52.66257        44.44201        -0.49207
C         51.38763        43.78169        -0.13571
C         52.62307        45.87250        -0.70295
C         51.41315        46.56821        -0.61151
C         52.62338        48.77499        -0.96334
C         51.37895        47.99352        -1.00497
C         52.60978        50.15545        -1.11047
C         51.34620        50.89246        -1.05660
C         51.37043        52.33427        -0.90227
C         54.79653        22.92907        -0.62072
C         53.77304        22.24175         0.02872
C         54.54469        24.18458        -1.22981
C         53.22301        24.64124        -1.08129
C         54.45679        27.33493        -1.45092
C         53.16160        26.81742        -1.25678
C         54.55248        28.73342        -1.21735
C         53.47530        29.45406        -0.64841
C         54.62683        31.62914        -1.40743
C         53.48180        30.91171        -0.68684
C         54.86086        32.98207        -0.73341
C         53.58575        33.81785        -0.85082
C         54.79453        35.97962        -1.13910
C         53.83566        35.21125        -0.21964
C         55.00180        37.36144        -0.58461
C         53.85828        38.05003        -0.14438
C         55.12587        40.14569        -0.23470
C         53.91556        39.44785         0.02487
C         55.08869        41.57324        -0.47178
C         53.92635        42.32486        -0.32490
C         54.95757        44.38791        -1.47746
C         53.83352        43.71841        -0.69001
C         55.05824        45.87394        -1.17995
C         53.88242        46.56521        -0.93741
C         55.16695        48.80164        -1.10188
C         53.88534        48.04348        -0.81088
C         55.02856        50.19701        -1.52939
C         53.84232        50.84796        -1.42352
C         56.75806        24.37582        -2.27117
C         55.59343        25.04211        -1.83095
C         56.81355        27.15023        -2.15631
C         55.59045        26.48838        -1.86007
C         56.91886        28.63740        -2.15243
C         55.75766        29.44032        -1.68337
C         57.13765        31.54288        -1.69383
C         55.92341        30.87105        -1.41365
C         57.20964        32.99035        -1.66400
C         56.04381        33.76706        -1.29220
C         57.21202        35.91751        -1.89155
C         56.04654        35.14352        -1.33859
C         57.38115        37.30645        -1.27616
C         56.24355        38.02106        -0.75950
C         57.66274        40.07393        -0.36311
C         56.31653        39.41103        -0.47446
C         57.59581        41.53843        -0.66501
C         56.33190        42.18371        -0.99078
C         57.57098        44.39736        -1.31754
C         56.29898        43.62984        -1.42181
C         57.51934        45.83869        -1.46026
C         56.32786        46.53959        -1.38028
C         57.63368        48.60417        -0.86603
C         56.40112        48.05480        -1.56031
C         57.90513        25.04902        -2.67352
C         59.15728        27.18767        -2.98584
C         57.96368        26.44963        -2.57798
C         59.31655        28.50785        -2.75779
C         58.29514        29.25680        -1.93167
C         59.49164        31.47534        -2.31501
C         58.30962        30.78086        -2.04131
C         59.55826        32.87230        -2.29662
C         58.42614        33.66782        -1.98655
C         59.66226        35.85246        -2.14870
C         58.48571        35.11352        -1.96382
C         59.69287        37.24541        -2.04889
C         58.58468        38.00972        -1.55122
C         59.84294        40.16982        -1.65309
C         58.71312        39.40601        -1.22786
C         59.94034        41.52408        -1.51479
C         58.88103        42.28519        -0.73081
C         60.00098        44.50955        -1.01088
C         58.76738        43.75157        -1.07760
C         60.04499        45.82532        -1.30059
C         58.81717        46.60631        -1.67370
C         58.78021        47.92710        -0.93650
O         56.31471        42.60035        -2.46727
O         36.22397        48.79763        -1.11902
O         25.80293        44.96325        -1.27792
O         54.76543        48.54002         0.27313
O         42.19534        31.00000         0.31561
O         27.28498        37.74968         0.08362
O         41.10298        25.57649         2.70567
O         33.78352        35.39834        -1.56842
O         38.24563        50.73008         2.27614
O         25.80709        32.06435         0.03332
O         24.83536        37.68330        -2.78688
O         30.36643        29.33475        -3.03353
O         40.78547        23.78922        -0.60927
O         45.62906        35.27939        -0.48325
O         42.37280        53.09774         1.74456
O         31.63280        33.38023         1.14463
O         25.16629        26.74928        -0.68097
O         30.92081        43.75030         1.16191
O         43.24853        54.99300        -1.40680
O         45.48070        23.80207         0.37331
O         39.11368        29.02708         3.01703
O         53.05178        41.07487         1.62311
O         27.73330        24.86721        -3.90634
O         49.34663        35.41751        -0.90299
O         33.92523        47.62310        -1.31975
O         41.85705        20.50520         3.23139
O         36.61594        28.68322         2.11377
O         39.03224        34.72661         2.28549
O         41.82802        33.60027         2.70207
O         49.00870        43.47397         2.06932
O         48.70457        51.76256        -2.15872
O         56.06367        29.23277        -3.16841
O         27.90194        41.29993        -2.49383
O         50.99019        23.83976         2.68459
O         40.87718        19.59167        -1.08030
O         52.79932        25.65881        -1.93199
O         26.30899        41.76231         0.28970
O         44.41511        46.03704        -0.94769
O         39.30838        55.07976        -0.81082
O         30.55411        41.36270        -2.63397
O         47.45184        27.00779         3.54712
O         30.95293        26.97773        -0.18681
O         44.03724        22.16755         3.37093
O         46.02587        29.34803         3.72696
O         39.64299        26.25158        -0.74769
O         49.65655        26.08989         3.03776
O         34.98295        41.00192         1.33046
O         39.52581        46.45612         2.43918
O         51.22196        33.63788        -1.19031
O         26.68602        31.31606        -3.40396
O         35.77775        20.60677         1.52827
O         49.76259        26.75400        -0.52607
O         24.44068        40.27309        -2.61543
O         51.03920        42.65140        -1.09329
O         38.43904        31.13120        -0.10312
O         42.65852        27.94800         3.51462
O         49.83323        35.78052         2.43368
O         47.34550        31.75081         3.18905
O         50.56114        48.18843        -2.22113
O         30.00528        26.10224        -3.54248
O         50.71578        41.67409         2.48253
H         50.32198        42.47199         2.90696
O         37.87811        53.32108         2.82181
H         37.92273        52.36934         3.08931
O         29.32136        44.78220        -1.94836
H         28.47743        44.67947        -2.43892
O         29.38338        47.73000         2.82964
H         30.17665        47.16119         2.93091
O         37.55646        18.84281         2.35716
H         36.69316        19.31995         2.43222
O         40.19796        35.81168        -0.99757
H         41.03598        36.16268        -1.36573
O         56.52446        48.32706        -2.97655
H         57.37843        47.92506        -3.28030
O         24.42217        30.00072        -3.65021
H         25.26911        30.54020        -3.77861
O         34.66331        36.28387         1.93326
H         34.67919        35.41317         2.40048
O         30.70701        37.36122        -3.05561
H         31.31815        38.09915        -3.30368
O         34.65285        42.56843        -1.96403
H         34.04774        43.14678        -2.47502
O         33.55761        27.55620        -2.68603
H         34.40002        28.05196        -2.76342
O         44.98098        18.70803         4.20518
H         44.22160        19.29770         4.40474
O         41.66630        43.98912        -0.91618
H         40.99059        43.42392        -1.34563
O         53.39153        33.97328        -2.27533
H         52.41817        33.99431        -2.44019
O         46.64594        34.39845         2.94231
H         46.86022        33.59176         3.47549
O         43.92637        39.62410        -1.11986
H         44.74871        39.16094        -1.42083
O         40.21650        40.21978         2.77264
H         39.38997        40.64441         3.08979
O         31.36202        51.58929        -0.61689
H         31.39796        50.80849        -1.20981
O         42.87737        20.52698        -0.01059
H         42.48963        19.82736        -0.64943
O         55.16941        32.62228         0.62422
H         55.27778        33.46340         1.13298
O         49.25830        22.25613         3.68532
H         49.75672        23.06894         3.93808
O         31.15403        35.86768         0.99498
H         31.16737        35.09473         1.61168
O         32.39381        39.61168        -2.77120
H         32.08016        40.43624        -3.21793
O         54.57876        35.09055         1.03319
H         53.91373        34.98228         1.76075
O         40.38636        32.93160        -0.58591
H         39.75426        32.23776        -0.89403
O         35.90203        37.04850        -1.46049
H         35.21049        36.49954        -1.91453
O         25.65082        44.95959         2.39312
H         25.73366        45.61968         3.11319
O         59.49813        42.24404         0.61200
H         59.20974        41.39139         1.03082
O         52.10730        31.02806         2.07788
H         51.53733        30.57335         2.73436
O         36.11154        38.49705         1.92476
H         35.67983        37.69582         2.31174
O         58.58776        28.96572        -0.52553
H         59.48401        29.30787        -0.32480
O         29.57779        33.72785        -3.12449
H         29.08327        32.96416        -3.49659
O         42.75818        41.63688         2.74273
H         41.92635        41.17909         3.02416
O         52.17898        34.78727         2.17795
H         51.47767        34.87790         2.87193
O         34.77502        33.27106         2.48524
H         33.90315        32.83881         2.62153
O         45.29034        50.59208         1.74305
H         46.07602        50.13090         2.10325
O         33.29684        20.92956         0.90893
H         33.86100        21.15904         1.68210
O         44.95884        27.01490         4.08524
H         45.63298        27.51495         4.60016
O         45.31052        45.03261         2.42888
H         45.65364        44.26075         2.92998
O         54.30400        31.76310        -2.81084
H         54.49267        30.90685        -3.25315
O         43.91636        50.79470        -1.63194
H         43.22690        51.36622        -2.02946
O         58.91444        46.92608        -3.10747
H         58.93454        46.07588        -3.59631
O         39.05038        21.24517        -1.38913
H         39.71539        20.61328        -1.80716
O         36.91073        51.42805        -1.04835
H         36.72246        50.56780        -1.50102
O         38.81080        43.88154         2.69503
H         39.01388        44.79846         3.01482
O         54.51532        44.34421        -2.86369
H         54.82279        43.48263        -3.23268
O         52.45484        25.63290         1.66546
H         52.44079        24.98074         2.40748
O         41.20936        30.07803         3.70077
H         41.31619        29.29706         4.28961
O         42.49339        44.56904         2.59805
H         43.34278        44.83434         3.02027
O         36.91345        39.50455        -1.50304
H         36.58550        38.63202        -1.83807
O         58.09434        39.91876         1.07509
H         58.18745        38.95805         1.25386
O         39.05397        22.08524         2.18942
H         38.35728        21.41205         2.34968
O         32.19868        40.13281         0.85799
H         32.87481        40.41925         1.51489
O         54.26653        36.30131        -2.45942
H         53.96780        35.44726        -2.86974
O         56.85630        36.20797        -3.29906
H         55.90313        36.48739        -3.28792
O         23.64055        42.81160        -2.06172
H         23.67458        41.98907        -2.61025
O         46.37964        38.10072        -1.16893
H         46.27788        37.14955        -1.41556
O         24.19271        30.02354         0.00369
H         24.52361        30.67409         0.66590
O         38.11596        28.21824        -1.07988
H         38.61079        27.57023        -1.63584
H         22.31541        26.63489        -2.23458
H         22.23815        29.04300        -2.44246
H         22.13766        31.01335        -1.55685
H         22.13278        33.40093        -1.43664
H         22.10496        35.30747        -1.01694
H         21.97753        37.70861        -1.12673
H         22.33299        39.49496        -0.05585
H         22.29679        41.84004         0.51947
H         22.01604        43.87694         0.46477
H         22.03505        46.22733         1.21007
H         25.79063        23.35848        -2.81971
H         23.65920        24.46139        -2.40485
H         25.37484        49.57713         1.95319
H         23.26523        48.34628         1.83800
H         27.63183        22.33877        -2.80392
H         26.93456        50.64570         1.25409
H         29.71394        21.23617        -2.23391
H         29.01421        51.94089         1.24280
H         33.51869        19.23891        -1.62056
H         31.62682        20.46291        -2.57829
H         32.88870        53.94888         2.27279
H         30.76144        52.77550         2.06238
H         34.86457        18.21782        -0.63734
H         34.39037        55.16377         1.66762
H         36.90747        17.06797        -0.03955
H         36.38953        56.49080         1.15907
H         40.48980        14.94764         1.17097
H         38.34015        16.19003         1.09355
H         40.39395        58.65949         0.76191
H         38.24679        57.54814         1.15373
H         42.92183        14.96086         1.38669
H         42.77312        58.62681         0.35223
H         45.02335        16.14510         1.89338
H         44.90096        57.47264         0.07496
H         48.63277        18.11187         2.14511
H         46.58753        16.98644         2.74916
H         48.64758        55.13820        -0.38579
H         46.56810        56.39846        -0.07908
H         50.10172        19.03709         1.24467
H         50.33340        54.13669        -0.47778
H         52.13698        20.17459         0.54868
H         52.34288        52.83380        -0.79761
H         55.79247        22.46843        -0.67909
H         53.97772        21.23411         0.41634
H         55.90331        50.69774        -1.96797
H         53.78789        51.89992        -1.73497
H         56.75608        23.27773        -2.30992
H         57.56894        49.57465        -0.35225
H         58.77620        24.48617        -3.03736
H         59.94031        26.62347        -3.51547
H         60.23431        29.01167        -3.09480
H         60.40775        30.92033        -2.56394
H         60.51521        33.35226        -2.54189
H         60.60943        35.33521        -2.36214
H         60.65174        37.74612        -2.23913
H         60.67017        39.64649        -2.15501
H         60.90744        42.02035        -1.68286
H         60.91885        43.97580        -0.72708
H         61.00120        46.36904        -1.28160
H         59.70671        48.30623        -0.48036
