         252
 CSIRO Nanostructure Databank - Neutral Graphene Oxide Data Set
C         30.68241        31.87388        -1.16199
C         30.46096        32.93180        -0.45442
C         30.50105        35.85532         1.02165
C         30.61407        37.02723         1.43358
C         30.71370        40.06911         2.47224
C         30.63977        41.31026         2.60231
C         32.89739        29.02712        -1.94025
C         31.86477        29.70207        -1.87906
C         32.98765        31.83056        -1.90095
C         31.63909        31.10354        -1.74370
C         33.05794        33.26315        -1.47629
C         31.16705        34.11274        -0.64555
C         32.74660        35.90758         0.09705
C         31.49447        35.23824         0.16202
C         32.77305        37.41151         0.45811
C         31.66441        37.96868         1.41156
C         32.98215        40.07202         1.74318
C         31.72719        39.25368         1.87418
C         32.94058        41.56359         1.95615
C         31.64294        42.29021         2.35339
C         32.92885        44.22407         2.09272
C         31.79225        43.65072         2.37954
C         35.48457        27.43141        -0.96932
C         35.24625        28.75744        -1.05459
C         34.34240        29.46403        -2.01807
C         35.42767        31.67357        -1.12226
C         34.26868        31.02198        -1.79681
C         35.36766        33.12290        -0.79572
C         34.09356        33.85771        -0.80753
C         35.23426        35.89137        -0.02483
C         34.01851        35.25793        -0.28563
C         35.34018        37.25672         0.54474
C         34.10115        37.97566         0.91919
C         35.30689        40.15472         0.81289
C         34.15728        39.45291         1.07420
C         35.26925        41.64743         0.81435
C         34.04437        42.36120         1.30411
C         35.45330        44.55951         1.54303
C         34.14046        43.83563         1.63817
C         35.35883        45.94589         0.90176
C         37.65648        27.23779        -0.29046
C         36.41517        26.60566        -0.61810
C         37.68078        28.65733        -0.20641
C         36.35569        29.45775        -0.24662
C         37.68769        31.60034        -0.13252
C         36.47147        30.91776        -0.63533
C         37.80739        33.02917        -0.61039
C         36.51533        33.76885        -0.45233
C         37.79499        35.93361        -0.16174
C         36.53018        35.13440         0.16955
C         37.77958        37.38423        -0.00659
C         36.58029        38.04851         0.34938
C         37.74820        40.20573         0.28787
C         36.54920        39.46423         0.45201
C         37.68358        41.70893        -0.00251
C         36.51315        42.43542         0.63400
C         37.73159        44.54683         0.25457
C         36.55896        43.79436         0.76647
C         37.67645        45.96105         0.07167
C         36.39460        46.46151         0.45995
C         40.17054        24.41666        -0.25525
C         39.11812        25.06502        -0.30488
C         40.20284        27.19933         0.08765
C         38.84527        26.45609         0.05367
C         40.15468        28.65611        -0.05534
C         38.93587        29.33764        -0.04702
C         40.27266        31.53722        -0.02635
C         38.96091        30.82252         0.08682
C         40.27268        33.03475        -0.00946
C         38.99055        33.78149        -0.06743
C         40.27016        35.92516        -0.35337
C         38.99306        35.25298        -0.29322
C         40.24238        37.42133        -0.55363
C         38.99296        38.11898        -0.04814
C         40.27179        40.28086         0.44328
C         38.97873        39.51498         0.14756
C         40.21679        41.67987        -0.19344
C         38.99609        42.44300         0.38746
C         40.14029        44.59302        -0.34892
C         38.94763        43.89377        -0.02936
C         40.06746        46.00186        -0.53664
C         38.82267        46.67194        -0.30463
C         39.97917        48.78745        -0.62980
C         38.96574        48.09396        -0.40487
C         42.75145        24.38247         0.12152
C         41.54234        24.95821        -0.53662
C         42.63153        27.11022         0.41291
C         41.50296        26.45805        -0.00124
C         42.71220        28.59011         0.21825
C         41.44953        29.36998        -0.10966
C         42.79404        31.55892        -0.20900
C         41.45051        30.85241        -0.00522
C         42.69939        33.06115         0.03840
C         41.49558        33.74008        -0.59366
C         42.74686        35.95832        -0.37256
C         41.47871        35.24712        -0.37353
C         42.80635        37.33198        -0.46415
C         41.54702        38.07055        -0.15798
C         42.74417        40.30557        -0.38556
C         41.56227        39.52878         0.11344
C         42.73844        41.79398        -0.25075
C         41.50207        42.47664        -0.14715
C         42.65686        44.59666        -0.46719
C         41.43652        43.88231        -0.33965
C         42.63802        46.01805        -0.86516
C         41.27297        46.77357        -0.93816
C         42.56189        48.82005        -0.94596
C         41.28777        48.29162        -0.86257
C         43.77390        25.00617         0.43847
C         45.11229        27.13280         1.06963
C         43.81944        26.36906         1.06331
C         45.05260        28.59231         1.36017
C         43.96258        29.34499         0.63622
C         45.11320        31.65174         1.15823
C         44.02082        30.84345         0.46289
C         45.16305        33.13965         0.85173
C         43.92153        33.84647         0.33995
C         45.20341        35.99378         0.32832
C         44.05469        35.19446        -0.35175
C         45.25907        37.44191        -0.13352
C         44.07069        38.06862        -0.40542
C         45.30610        40.30565        -0.70650
C         44.01401        39.53803        -0.66633
C         45.23814        41.80550        -0.59407
C         43.94328        42.51073        -0.37178
C         45.15321        44.68524        -0.45328
C         43.91492        43.93337        -0.38854
C         45.11697        46.09245        -0.50970
C         43.89578        46.79621        -0.70111
C         43.64293        48.14259        -0.88469
C         47.44702        27.34286         1.29874
C         46.37320        26.62743         1.31873
C         47.65620        28.68919         1.27607
C         46.37707        29.39861         1.55575
C         47.71038        31.62119         1.12109
C         46.42947        30.93960         1.61583
C         47.66677        33.12155         1.18759
C         46.44808        33.83519         0.83049
C         47.76686        36.02489         0.62856
C         46.54507        35.22105         0.19453
C         47.78826        37.52156         0.44407
C         46.45276        38.28291         0.31548
C         47.78872        40.28947        -0.46212
C         46.57097        39.61887        -0.37621
C         47.79667        41.76574        -0.51413
C         46.50901        42.49351        -0.07982
C         47.77086        44.69127        -0.66508
C         46.44669        43.95053        -0.57442
C         47.57476        46.14167        -0.47976
C         46.43975        46.64098        -0.56453
C         50.06078        28.82772         0.43451
C         48.70197        29.44724         0.50430
C         50.21145        31.57084         1.00270
C         48.87163        30.90615         0.99390
C         50.26126        33.05561         0.78599
C         49.01623        33.88170         0.93186
C         50.24255        35.95303         0.26965
C         49.03016        35.26743         0.47524
C         50.24760        37.37776        -0.03185
C         49.06619        38.16246        -0.01329
C         50.26674        40.20957        -0.82963
C         49.03047        39.52633        -0.44800
C         50.27463        41.76651        -0.69075
C         48.97165        42.46546        -0.53731
C         50.04234        44.24518         0.63655
C         49.09882        43.99250        -0.57362
C         51.15850        29.37184         0.31127
C         52.50229        31.57554         0.04034
C         51.75091        30.59287         0.84566
C         52.51109        32.80710        -0.06524
C         51.32417        33.71814        -0.12515
C         52.57592        35.99791         0.14241
C         51.45948        35.16640         0.22502
C         52.72035        37.24835         0.06158
C         51.55095        37.99464        -0.44791
C         52.72458        40.35860        -0.58749
C         51.58237        39.45907        -0.78664
C         52.56236        41.51013        -0.09407
C         51.48343        42.39596        -0.05786
C         51.13373        43.60768         0.56369
O         41.92878        46.24783        -2.12859
O         44.74644        32.56432         2.19847
O         50.33016        41.11908        -1.97804
O         42.86163        33.67854         1.33377
O         50.59758        32.46866         2.07585
O         31.96823        34.06184        -1.82882
O         45.40426        41.18894        -1.88682
O         33.40643        40.69702         3.02752
O         43.10166        39.88124        -1.75139
O         33.82656        31.61104        -3.08122
O         34.82031        37.25965         1.96572
O         42.35061        28.89877        -1.18179
O         48.42812        33.75610         2.26027
O         34.19049        42.11899        -0.12009
O         46.48416        42.48909         1.30716
O         39.62180        33.49760         1.21820
O         44.62583        29.96282        -0.53055
O         47.81288        36.90058         1.78384
O         45.54638        28.94958         2.66516
O         38.10790        31.28076         1.21453
O         51.63969        38.44887        -1.81757
O         47.09551        44.19234        -1.85682
O         41.77123        38.56736         1.21217
O         39.45702        26.78904         1.31290
O         44.36016        34.88479        -1.74280
H         44.08202        35.63845        -2.30555
O         43.04603        31.49291        -1.63785
H         43.15222        30.53126        -1.85998
O         35.91144        29.51228         1.13861
H         36.60321        30.00298         1.64587
O         41.43071        33.55898        -2.02461
H         41.98162        32.76967        -2.26132
O         49.82703        44.34761        -1.73233
H         49.56939        45.24890        -2.01676
O         36.60263        34.88802         1.61376
H         36.26288        35.68053         2.08615
O         44.88051        36.03670         1.72891
H         45.38255        36.77902         2.14122
O         52.24687        30.42559         2.11322
H         52.30546        31.30212         2.55268
O         38.07405        32.88648        -2.04400
H         38.15294        33.77934        -2.44112
O         46.05809        38.66694         1.67982
H         46.81617        39.11807         2.11143
O         48.18277        29.57697        -0.83546
H         48.15906        28.68834        -1.24887
O         43.44590        26.25071         2.44404
H         44.19551        25.86106         2.94173
O         41.74312        25.05623        -1.92505
H         41.90059        24.16312        -2.29373
O         50.75092        33.64272        -1.44045
H         51.36179        34.07115        -2.07620
O         32.53334        38.08357        -0.80667
H         31.69687        37.74318        -1.18966
O         34.86888        29.24803        -3.31313
H         34.42186        29.87774        -3.92385
O         35.95536        44.72832         2.86615
H         35.28506        45.19764         3.40507
O         37.43865        41.80146        -1.42440
H         38.23309        41.43844        -1.88738
O         40.21329        37.61041        -2.01018
H         39.38704        37.21084        -2.35438
O         40.30325        40.41350         1.88468
H         40.67390        39.56991         2.24265
O         46.58203        31.18084         3.03038
H         46.10359        32.01580         3.25456
O         39.03158        42.57778         1.81951
H         39.24254        41.71199         2.24115
O         46.88509        34.98701        -1.20196
H         46.08017        34.65282        -1.67519
O         40.00725        41.41986        -1.61506
H         40.39402        42.15534        -2.13619
