         294
 CSIRO Nanostructure Databank - Neutral Graphene Oxide Data Set
C          2.20416         2.19900        -3.37018
C          1.95996         3.52466        -2.87285
C          3.46876         1.70617        -3.48432
C          2.96544         4.38724        -2.52880
C          1.41436         5.83208        -1.15561
C          1.19238         6.93365        -0.33236
C          2.63068         5.66587        -1.86228
C          2.20876         7.88403        -0.10390
C          1.39725        10.89905         1.68201
C          1.58766        12.19251         1.98893
C          2.37768        10.11313         0.92734
C          2.87764        12.87725         1.59509
C          1.88620        15.13994         2.26129
C          1.96867        16.51784         2.30095
C          2.77223        14.38019         1.49185
C          3.19506        17.30089         1.89453
C          2.72614        18.62054         1.23874
C          4.62490         2.51866        -3.18600
C          4.42496         3.98180        -2.81422
C          5.87539         1.98639        -3.35352
C          5.36616         4.43432        -1.68262
C          3.54978         6.72948        -1.71503
C          3.42720         7.77981        -0.79675
C          5.53272         5.81142        -1.52999
C          4.63794         8.50026        -0.25235
C          3.51161        10.70390         0.42566
C          3.44734        12.23387         0.30982
C          4.56855        10.03058        -0.42324
C          4.74429        12.94280        -0.04259
C          3.59304        15.11603         0.46107
C          4.09510        16.50399         0.88734
C          4.77249        14.29371         0.01450
C          4.68495        17.30781        -0.23256
C          3.48877        19.33251         0.39087
C          4.87489        18.77007         0.22871
C          7.13461         2.67163        -3.01831
C          6.18482         3.63605        -0.83766
C          8.02836         2.06258        -2.18014
C          7.33918         4.23530        -0.22931
C          6.25764         6.39597        -0.47839
C          5.93526         7.76897         0.00801
C          7.32556         5.61893         0.02969
C          7.13354         8.52736         0.52126
C          5.95504        10.70212        -0.31618
C          6.02873        12.23874        -0.43288
C          7.19199         9.96259         0.10099
C          7.16885        12.86816         0.40569
C          6.04509        15.09508        -0.14150
C          5.80302        16.50577         0.37144
C          7.13533        14.34397         0.64751
C          7.09154        17.31568         0.54224
C          6.02778        19.30281        -0.55591
C          7.19447        18.60485        -0.26903
C          9.11120         2.74853        -1.39873
C          8.55337         3.36080         0.01866
C         10.22658         1.77510        -1.06194
C          9.75229         4.10588         0.64519
C          8.36041         6.21570         0.97432
C          8.33856         7.76363         0.99850
C          9.73895         5.60267         0.73543
C          9.65715         8.48257         1.30640
C          8.47778        10.68858         0.36769
C          8.48218        12.16790         0.47468
C          9.68732         9.92987         0.80549
C          9.64439        12.86459         0.57243
C          8.44797        15.06918         1.05989
C          8.38841        16.58431         0.76040
C          9.58558        14.37221         0.29641
C          9.70528        17.29935         0.48412
C          8.45368        19.08055        -0.72020
C          9.70962        18.54307        -0.33609
C         11.20480         2.13099        -0.18866
C         11.07836         3.42602         0.53702
C         12.46411         1.42339        -0.05158
C         12.33077         4.20001         0.64623
C         10.90505         6.30609         0.74528
C         10.88834         7.79619         0.72475
C         12.22405         5.63155         1.10804
C         12.16904         8.58987         0.63541
C         10.87621        10.73954         1.30047
C         10.97569        12.11462         0.60487
C         12.19436        10.00291         1.10671
C         12.11490        12.91303         1.26949
C         10.95184        15.05272         0.40289
C         11.00536        16.54695         0.53783
C         12.19517        14.27323         0.62894
C         12.29990        17.23687         0.17282
C         10.88716        19.07084        -0.87186
C         12.24893        18.60707        -0.54484
C         13.61125         2.11162         0.29734
C         13.52514         3.55823         0.53834
C         14.90315         1.46546         0.35388
C         14.80698         4.33977         0.46724
C         13.50029         6.42323         0.90190
C         13.47906         7.83307         0.33759
C         14.69411         5.76358         0.99152
C         14.79211         8.69839         0.51107
C         13.37481        10.69066         1.28100
C         13.43306        12.13759         1.24306
C         14.62318         9.88490         1.55344
C         14.63477        12.80729         1.05034
C         13.48901        14.95980         0.66062
C         13.59268        16.40781         0.24224
C         14.63370        14.21487         0.65327
C         14.41090        16.41081        -1.02101
C         13.41158        19.02770        -1.39065
C         14.73311        18.92973        -0.98193
C         16.07458         2.11940         0.71709
C         15.98034         3.55661         0.99522
C         17.34915         1.41934         0.56211
C         16.97128         4.27174         1.57523
C         15.92077         6.53128         1.23852
C         15.98216         7.87340         1.02342
C         17.11502         5.73593         1.64682
C         17.29983         8.60877         1.00583
C         15.92864        10.72740         1.62989
C         15.94276        12.15130         1.17074
C         17.24666        10.00613         1.62084
C         17.11670        12.78437         0.80472
C         15.79518        14.60886        -0.23410
C         15.71651        15.98598        -0.86908
C         17.14928        14.23645         0.32081
C         16.68469        16.31192        -1.97383
C         15.91556        18.85004        -1.89961
C         16.81798        17.84978        -2.17160
C         18.62866         1.93499         0.66238
C         18.86178         3.26044         1.21822
C         19.83251         1.32699         0.10556
C         19.75076         4.15746         0.71945
C         18.49708         6.35216         1.61112
C         18.53044         7.90396         1.64810
C         19.65194         5.68160         0.81377
C         19.84311         8.54642         1.12588
C         18.55134        10.77225         1.52447
C         18.46515        12.18188         1.02968
C         19.90769        10.03440         1.59778
C         19.72910        12.83550         0.50316
C         18.22549        14.35618        -0.81188
C         18.05031        15.56476        -1.79196
C         19.63606        14.15290        -0.22259
C         19.28082        16.21278        -2.35095
C         17.99049        18.26677        -2.92885
C         19.15920        17.55642        -2.98205
C         20.89191         2.10772        -0.20666
C         20.83088         3.62312        -0.20018
C         22.12798         4.30305         0.16735
C         21.01141         6.32804         1.02375
C         21.09296         7.75336         1.58296
C         22.15511         5.59217         0.68645
C         22.29456         8.56401         1.11557
C         21.02309        10.69145         0.80332
C         20.94243        11.97688         0.30968
C         22.22837         9.86487         0.73726
C         21.93155        12.45819        -0.64924
C         20.90105        14.74010        -0.88427
C         20.64732        15.76668        -1.97594
C         21.85397        13.63961        -1.29645
C         21.71308        16.39284        -2.54658
C         20.33621        18.09276        -3.62844
C         21.55299        17.50896        -3.44747
O         10.47438        17.18161         1.73424
O          6.67067        13.42325         1.67086
O         10.28983         3.39870         1.82143
O         18.54370        15.16318        -3.11357
O          7.71057        17.31508         1.85367
O         15.06405         9.31789        -0.70975
O         12.46954        18.49260         0.89748
O         19.84706        14.13455         1.22418
O         17.99088         3.59933         2.25544
O         11.71832        14.53833        -0.75338
O         16.60631        10.33872         2.88252
O          9.45215        10.12844        -0.61020
O          6.82647        10.08777        -1.32736
O          4.79479         6.67911        -2.37178
O          4.89295         7.92802         1.06212
O          1.96849         8.79025         0.90980
O          7.33603         8.28225         1.95005
O         17.93450         5.94656         2.88330
O         11.26522         8.41690        -0.52778
O         18.60217        11.87751         2.47620
O          2.50616        12.50963        -0.77416
H          2.80769        11.97103        -1.54239
O         18.50118         8.30011         3.03258
H         18.11411         7.55199         3.54972
O          3.85333        12.59491         2.63999
H          3.68651        13.19261         3.39831
O         15.08444        19.12024         0.29635
H         14.27382        19.06364         0.86276
O         15.57344        13.69991        -1.37477
H         14.68330        13.88027        -1.74726
O         13.84854        16.68648        -2.20767
H         14.51541        16.47946        -2.91508
O         14.42105        16.97709         1.28725
H         13.97720        16.81339         2.14546
O         13.44849         7.50232        -1.06789
H         14.06266         8.16628        -1.49247
O         16.13266        15.86708        -3.25528
H         16.91374        15.58895        -3.80029
O          9.69631         3.84926        -2.10538
H          9.06161         4.14697        -2.79607
O         17.54381         8.84624        -0.40594
H         16.63838         9.08473        -0.81118
O          8.19195         2.24393         0.84793
H          8.84331         2.23481         1.59505
O          9.20639        14.49554        -1.09738
H          9.98834        14.20311        -1.62262
O         17.41629        15.12065         1.40972
H         18.25534        14.83284         1.84234
O          8.68356        14.89681         2.45149
H          8.22063        15.62370         2.92407
O          6.47054        15.21520        -1.50902
H          6.55472        14.30467        -1.88759
O         21.62849        15.49750         0.12493
H         21.44195        15.06335         0.99152
O         15.05814         4.54817        -0.96652
H         15.01824         3.67037        -1.40187
O         20.61048         4.00022        -1.59634
H         20.10113         4.85309        -1.57362
O         14.37980         9.26358         2.82350
H         15.20963         9.36482         3.35659
O         10.67447        10.94058         2.72089
H         10.57789        10.04125         3.12846
O         21.14853         7.57692         3.00869
H         20.78736         8.40728         3.41347
O          9.80142         8.46459         2.74524
H          8.89750         8.44408         3.13530
O          6.28679        12.52479        -1.83015
H          6.90838        11.82818        -2.15109
O         11.40575        11.90910        -0.75272
H         10.86330        11.17694        -1.13598
O         19.26489         6.03324        -0.57223
H         19.51674         6.98743        -0.72975
O          8.00261         5.78046         2.30947
H          7.24346         6.33764         2.59584
O          5.86580         2.35633        -0.56085
H          6.55324         1.99137         0.05134
O          3.82392        17.54233         3.16547
H          4.65277        18.04974         2.98293
O          2.68371        15.27203        -0.68569
H          2.42528        14.34900        -0.94925
O          4.27002        17.22829        -1.56989
H          3.71585        16.41631        -1.66636
O         12.10851         5.53066         2.57506
H         11.40775         4.85851         2.75705
O          4.83463         4.68939        -4.03150
H          4.72124         5.65638        -3.85373
O          5.41509        18.78287         1.59954
H          5.86117        19.64362         1.73950
O          7.35500         3.91944        -3.52739
H          6.52527         4.24206        -3.97771
O          4.16015        10.25881        -1.80541
H          4.94022        10.07387        -2.37494
O         11.83083        13.24743         2.64276
H         11.54385        12.42511         3.11054
O         19.99433         8.55484        -0.31140
H         19.20746         9.00970        -0.71034
O         18.10031        13.16206        -1.62291
H         17.19632        13.17044        -2.02252
O         20.33082        10.08031         2.98019
H         19.84989        10.83199         3.40045
H          1.33998         1.57012        -3.62467
H          0.90990         3.82695        -2.74949
H          3.63620         0.67478        -3.82814
H          0.63716         5.05803        -1.20972
H          0.25235         7.01423         0.22881
H          0.49058        10.37240         2.01353
H          0.84582        12.72250         2.60354
H          1.09273        14.64675         2.84535
H          1.22145        17.07630         2.88525
H          1.70305        18.95367         1.47485
H          5.94488         0.91078        -3.58713
H          3.13824        20.25463        -0.09643
H          7.76253         1.05270        -1.83464
H          6.00885        20.18952        -1.20592
H         10.31625         0.84559        -1.64499
H          8.45432        19.98597        -1.34803
H         12.52041         0.36546        -0.34956
H         10.79079        19.88854        -1.60359
H         14.94594         0.39705         0.09024
H         13.22132        18.94072        -2.47138
H         17.26052         0.40632         0.13268
H         16.18684        19.83633        -2.32655
H         19.86448         0.23942        -0.06243
H         17.97633        19.27513        -3.37523
H         21.79125         1.65292        -0.64951
H         23.07750         3.82280        -0.11562
H         23.14043         6.05976         0.83904
H         23.28111         8.07479         1.11630
H         23.16404        10.35354         0.42313
H         22.72976        11.75867        -0.93749
H         22.61756        13.88638        -2.04949
H         22.73445        16.08081        -2.28641
H         20.23177        19.00315        -4.23673
H         22.44797        17.93221        -3.92432
