         331
 CSIRO Nanostructure Databank - Neutral Graphene Oxide Data Set
C         30.30942        57.20895         0.51712
C         30.33526        58.61758         0.45733
C         29.15792        59.37818         0.35063
C         30.37099        61.49861         0.40405
C         29.20683        60.79762         0.26230
C         32.80077        52.86852         0.28705
C         32.79386        54.27831         0.79876
C         31.52096        55.06467         0.64086
C         32.77204        57.16757         0.10921
C         31.51043        56.43474         0.51715
C         32.79060        58.63468         0.49100
C         31.62181        59.32174         0.54097
C         32.86687        61.44817         0.10463
C         31.66185        60.82225         0.77142
C         35.28397        48.63682         0.00203
C         35.25314        50.05407        -0.06242
C         34.04473        50.76831         0.00587
C         35.26581        52.93507         0.07026
C         34.00462        52.19475         0.11823
C         35.27684        54.31940         0.22320
C         34.04124        55.04996         0.43045
C         35.30280        57.17030         0.73121
C         34.03500        56.41497         0.43888
C         35.26099        58.56800         0.09735
C         34.10275        59.38419         0.68306
C         35.30578        61.39577        -0.28874
C         34.05945        60.77625         0.06849
C         37.79431        44.37602         0.26166
C         37.74101        45.77679         0.03866
C         36.52667        46.49691         0.07592
C         37.73557        48.61856        -0.25937
C         36.49426        47.90784        -0.05237
C         37.72638        50.07456        -0.29571
C         36.50352        50.78249        -0.17161
C         37.72230        52.90446        -0.28730
C         36.50618        52.20647        -0.14645
C         37.71191        54.39184        -0.51610
C         36.50839        55.08106         0.07209
C         37.82920        57.17879         0.52474
C         36.54604        56.41439         0.33995
C         37.75812        58.62018         0.06507
C         36.58542        59.30329         0.08575
C         37.77800        61.43813        -0.28959
C         36.54483        60.74183        -0.19584
C         40.37802        40.29556         1.28455
C         40.30247        41.61549         0.87473
C         39.07519        42.29114         0.60431
C         40.24990        44.41157         0.06237
C         39.01893        43.67544         0.31360
C         40.20365        45.79839        -0.25422
C         38.96707        46.49414        -0.23280
C         40.16060        48.63975        -0.87397
C         38.92587        47.90595        -0.40864
C         40.24157        50.04232        -0.25401
C         38.94077        50.79105        -0.37582
C         40.20694        52.92090        -0.46437
C         38.95012        52.20319        -0.38792
C         40.23137        54.33777        -0.31581
C         39.01747        55.07016        -0.17873
C         40.29366        57.13319         0.11414
C         39.05994        56.44150         0.06910
C         40.27138        58.63823         0.29576
C         39.04538        59.26049        -0.40791
C         40.23094        61.47264        -0.14379
C         39.03252        60.77696        -0.27146
C         42.81622        36.01495         1.61845
C         42.79913        37.42972         1.46352
C         41.63782        38.17295         1.68536
C         42.87384        40.24506         1.07874
C         41.66516        39.66837         1.77718
C         42.88134        41.67464         0.82478
C         41.54699        42.42247         0.78850
C         42.71130        44.43354        -0.14183
C         41.49510        43.75862         0.16751
C         42.71010        45.80900        -0.38080
C         41.45057        46.53047        -0.40864
C         42.71634        48.68862        -0.48591
C         41.44124        47.89750        -0.59806
C         42.65491        50.04142        -1.19575
C         41.43816        50.81456        -0.74809
C         42.67672        52.95016        -0.75154
C         41.43289        52.21026        -0.69772
C         42.69974        54.27957        -0.38434
C         41.47991        55.01729        -0.19123
C         42.78569        57.12649         0.08055
C         41.50187        56.42834         0.01037
C         42.82589        58.59334         0.07813
C         41.54967        59.27664        -0.21968
C         42.80792        61.47748        -0.00645
C         41.54158        60.82930        -0.28559
C         45.25150        33.17553         1.72216
C         44.04801        33.87243         1.76898
C         45.24921        35.95414         1.25768
C         44.01848        35.27843         1.54709
C         45.24176        37.35987         1.00245
C         44.03811        38.09303         1.10519
C         45.24435        40.13237         0.34876
C         44.03659        39.49978         0.83748
C         45.21139        41.53643        -0.01469
C         44.04087        42.26036         0.15389
C         45.23790        44.35633        -0.30441
C         43.93673        43.61688        -0.48550
C         45.22972        45.82702        -0.56965
C         43.93428        46.53084        -0.69042
C         45.13873        48.62497        -1.30223
C         43.92914        47.88876        -0.88018
C         45.15376        50.10798        -1.15605
C         43.96228        50.78160        -1.03757
C         45.22246        52.94076        -0.86783
C         43.92842        52.26950        -1.25691
C         45.24080        54.27025        -0.49179
C         43.98805        54.92083         0.05073
C         45.23440        57.16283        -0.02471
C         43.95595        56.42317         0.00138
C         45.24761        58.54056         0.59882
C         43.99803        59.29789         0.19293
C         45.24122        61.41836         0.34060
C         44.02304        60.75798         0.15788
C         46.45617        33.83342         1.45342
C         47.69165        35.92607         0.94211
C         46.47703        35.22816         1.20958
C         47.69994        37.29016         0.63559
C         46.45066        38.01953         0.61318
C         47.63733        39.90562        -0.51220
C         46.42547        39.38214         0.23206
C         47.64967        41.41954        -0.71316
C         46.42431        42.20201        -0.48301
C         47.70856        44.33486        -0.65942
C         46.48052        43.59377        -0.54986
C         47.70505        45.77882        -0.81970
C         46.48529        46.46876        -0.94401
C         47.73049        48.61441        -1.30966
C         46.47165        47.87159        -1.34436
C         47.66306        50.07223        -1.50989
C         46.41814        50.81391        -1.24336
C         47.71014        52.87235        -0.72098
C         46.45532        52.20682        -1.03045
C         47.68735        54.24317        -0.27176
C         46.49204        54.93589        -0.26084
C         47.78007        57.10886         0.17211
C         46.50893        56.40827        -0.11557
C         47.74434        58.57832         0.23900
C         46.55307        59.26309         0.37156
C         47.76399        61.47188         0.17690
C         46.53144        60.73468         0.72625
C         48.92409        38.01440         0.46128
C         50.13400        40.09882         0.05236
C         48.93882        39.34996         0.05304
C         50.19753        41.48327        -0.24079
C         48.96414        42.18516        -0.66353
C         50.16032        44.36775        -0.50588
C         48.93741        43.65610        -0.57303
C         50.17412        45.78694        -0.71678
C         48.94181        46.49256        -0.93037
C         50.19366        48.65403        -1.09832
C         48.94344        47.93344        -1.12776
C         50.24465        50.05566        -1.11086
C         49.00408        50.83624        -1.34577
C         50.19035        52.78609        -0.34752
C         48.92394        52.19538        -0.83027
C         50.18165        54.15224         0.27445
C         48.85863        54.88247         0.47179
C         50.26463        57.08546         0.15559
C         48.93141        56.38895         0.25494
C         50.21999        58.54804         0.55239
C         49.01438        59.28114         0.37761
C         50.23419        61.36052         0.70188
C         49.03933        60.70385         0.46308
C         51.36144        42.23612        -0.07875
C         52.59130        44.37986        -0.20299
C         51.39126        43.65619        -0.27741
C         52.62559        45.78130        -0.43614
C         51.41230        46.46701        -0.72630
C         52.69457        48.63291        -0.75947
C         51.47940        47.87967        -1.22832
C         52.68307        50.03086        -0.79899
C         51.47675        50.75959        -0.97610
C         52.69094        52.92061        -0.41395
C         51.46017        52.28003        -1.01625
C         52.66616        54.23623         0.12021
C         51.43876        54.89858         0.33607
C         52.68157        57.02268         0.79938
C         51.37065        56.29929         0.86721
C         52.62448        58.42666         1.22922
C         51.39114        59.20023         0.94798
C         52.63214        61.32183         1.26322
C         51.44297        60.63970         0.98856
C         53.85591        46.50272        -0.38044
C         55.13902        48.61321        -0.33895
C         53.91597        47.90781        -0.51075
C         55.21935        50.01543        -0.48085
C         53.97914        50.73706        -0.82833
C         55.20543        52.90353        -0.19517
C         53.96824        52.27050        -0.63633
C         55.16366        54.26902         0.18597
C         53.91747        54.94323         0.34019
C         55.14129        57.08045         0.76401
C         53.89814        56.34511         0.67785
C         55.15271        58.47864         1.05650
C         53.91180        59.14865         1.51921
C         55.11589        61.36104         1.23047
C         53.89440        60.66328         1.75348
C         56.40931        50.74396        -0.32867
C         57.63954        52.88653        -0.03624
C         56.43322        52.17291        -0.21722
C         57.64274        54.29474         0.14841
C         56.39554        54.98048         0.32143
C         57.58504        57.11685         0.40361
C         56.37756        56.39247         0.51813
C         57.50970        58.57435         0.33192
C         56.29411        59.24752         0.79496
C         57.53650        61.41436         0.85504
C         56.29403        60.69293         0.92021
C         58.84932        55.03958         0.18098
C         60.05885        57.20443         0.33498
C         58.84021        56.44934         0.26979
C         60.07788        58.59171         0.48590
C         58.82855        59.36348         0.33670
C         60.00696        61.41661         1.04723
C         58.77487        60.77556         0.76452
C         61.25655        59.32451         0.78912
C         61.20859        60.69906         1.03365
O         54.08691        51.62298        -1.97672
O         48.41050        50.59534        -2.65691
O         45.89390        57.05717        -1.32706
O         50.25900        52.89600         1.11181
O         45.31526        45.24097         0.83622
O         42.36417        42.45539         2.01385
O         58.10529        59.12163        -0.90336
O         48.37220        41.74433        -1.94806
O         41.53631        59.91714        -1.47702
O         53.19563        58.49894         2.62479
O         32.94332        54.11761         2.28178
H         33.61093        53.41296         2.42922
O         43.84436        43.38759        -1.93289
H         43.01558        42.89809        -2.11756
O         40.42172        49.81750         1.18815
H         40.66428        50.67506         1.59649
O         50.98553        56.24863         2.27303
H         51.74403        55.90245         2.78786
O         51.39950        52.71335        -2.40876
H         52.23908        52.41956        -2.83050
O         40.01150        48.76576        -2.31511
H         40.87556        49.08796        -2.68250
O         31.85590        61.03075         2.22720
H         31.07516        60.64273         2.67744
O         45.66987        48.16398        -2.57900
O         32.69237        57.15057        -1.36318
H         31.83654        57.56275        -1.60789
O         40.21388        58.93147         1.70918
H         39.44289        58.42232         2.07822
O         51.68885        47.72935        -2.69946
H         51.61587        48.62635        -3.09210
O         34.98826        58.35786        -1.30785
H         34.78829        59.22625        -1.71545
O         53.92629        60.88753         3.20512
H         53.46892        60.11174         3.60912
O         39.16011        58.90246        -1.80898
H         38.38485        59.26967        -2.28201
O         35.35498        57.32205         2.19162
H         35.00124        56.49950         2.59181
O         43.82459        52.38835        -2.73804
H         44.70619        52.16383        -3.10925
O         45.15191        58.37207         2.05718
H         44.28857        57.94996         2.25686
O         34.30565        59.59678         2.09738
H         33.55990        60.17000         2.40509
O         48.49901        54.72548         1.87506
H         48.90278        53.87967         2.17746
O         47.51188        39.31572        -1.84115
H         48.01726        39.90450        -2.44965
O         41.80430        40.02022         3.21002
H         41.96675        40.99539         3.23134
O         37.56134        54.56033        -1.97229
H         38.29998        54.07933        -2.40248
O         42.51601        49.80226        -2.63673
H         42.71681        50.66198        -3.08037
O         46.61018        60.81114         2.18379
H         46.04494        60.08494         2.54031
O         47.62599        61.64286        -1.24296
H         47.55412        60.75649        -1.65401
O         38.01920        57.28318         1.99532
H         37.12306        57.50501         2.37099
O         42.92983        49.02312         0.92718
H         42.71964        48.22812         1.46177
O         50.63194        57.06298        -1.25815
H         49.92986        57.52207        -1.76579
O         44.06724        54.61979         1.50282
H         43.19805        54.84632         1.89815
H         29.33830        56.69555         0.59302
H         28.18758        58.86666         0.28210
H         30.36392        62.59720         0.34840
H         28.26824        61.33957         0.07225
H         31.85773        52.30004         0.28610
H         30.57247        54.53243         0.81962
H         32.79732        62.49047        -0.24375
H         34.33574        48.09047         0.12158
H         33.09642        50.21187         0.06020
H         35.29361        62.46761        -0.54317
H         36.85790        43.83059         0.45353
H         35.58408        45.95279         0.23986
H         37.76071        62.53783        -0.34420
H         39.45048        39.70936         1.37206
H         38.13270        41.73966         0.74073
H         40.20483        62.55636         0.05150
H         41.87878        35.49255         1.86243
H         40.70628        37.64963         1.94965
H         42.80240        62.55311         0.22605
H         45.25717        32.09106         1.90153
H         43.10919        33.34250         1.98436
H         45.24694        62.51936         0.32136
H         47.39755        33.26638         1.42349
H         48.64094        35.37034         0.96522
H         47.82093        62.49264         0.62616
H         49.87159        37.51474         0.71655
H         51.05688        39.59945         0.38784
H         50.25944        62.46029         0.72153
H         52.29304        41.72720         0.21157
H         53.53295        43.84785        -0.00148
H         52.61324        62.42247         1.27081
H         54.78205        45.94771        -0.16830
H         56.05250        48.04630        -0.10648
H         55.12974        62.45927         1.30624
H         57.35175        50.19631        -0.18028
H         58.59794        52.34912        -0.08764
H         57.51026        62.49304         1.07205
H         59.80964        54.51148         0.08564
H         61.00964        56.65156         0.36987
H         60.00908        62.48333         1.31261
H         62.21644        58.79182         0.84813
H         62.14344        61.22833         1.26709
