         349
 CSIRO Nanostructure Databank - Neutral Graphene Oxide Data Set
C          1.29634         4.12210         1.99130
C          0.12669         4.73479         1.48683
C          1.48263         6.18205         0.00528
C          0.20118         5.77411         0.60329
C          1.55862         7.58497        -0.52151
C          0.31878         8.26553        -0.86558
C          1.43043        10.43144        -1.27049
C          0.23452         9.58563        -1.16813
C          1.34083        11.92352        -1.13893
C          0.10075        12.62242        -1.31182
C          1.19213        14.81636        -1.17197
C          0.05230        14.01396        -1.37224
C          1.19287        16.24623        -1.30445
C          0.00123        16.99773        -1.30017
C          1.17306        19.13903        -1.50876
C          0.01711        18.41014        -1.29897
C          1.13204        20.60497        -1.66101
C         -0.11020        21.37867        -1.37320
C          1.08964        23.14134        -0.04735
C         -0.11485        22.57756        -0.77223
C          1.14868        24.65701         0.15391
C         -0.05453        25.35966         0.41587
C          1.14776        27.44630         0.76492
C         -0.06228        26.72223         0.67268
C          1.17596        28.84218         1.08657
C          3.63259         3.93669         2.41568
C          2.59250         4.48574         1.60390
C          4.06987         6.22495         0.27830
C          2.76312         5.48555         0.48303
C          4.10838         7.63193        -0.38114
C          2.73730         8.28576        -0.51013
C          3.79967        10.56447        -0.32094
C          2.74399         9.71825        -0.88926
C          3.78386        11.98167        -0.71913
C          2.49479        12.65996        -0.94169
C          3.70114        14.90447        -0.83728
C          2.41949        14.13614        -0.62808
C          3.64683        16.30516        -1.08593
C          2.44980        16.96472        -1.34540
C          3.73836        19.15922        -1.51781
C          2.45407        18.39809        -1.84480
C          3.74293        20.62283        -1.76092
C          2.42972        21.37013        -1.72610
C          3.72371        23.27272        -0.58765
C          2.46235        22.81958        -1.33060
C          3.63362        24.76284        -0.28891
C          2.36172        25.35982         0.20049
C          3.59681        27.44559         0.81431
C          2.38081        26.75207         0.56449
C          3.61766        28.82040         1.17178
C          2.35993        29.51088         1.26062
C          6.15359         3.72363         2.71723
C          4.97847         3.90027         2.00167
C          6.57293         5.95761         0.58134
C          5.21187         5.47425         0.38863
C          6.47313         8.19910         0.45322
C          5.13092         8.60716         0.21476
C          5.97147        10.87494         0.92100
C          4.89428        10.00104         0.33352
C          6.08252        12.27887         0.40321
C          5.00001        12.79254        -0.49091
C          6.18007        14.91006        -0.66181
C          4.93142        14.26789        -0.59340
C          6.17296        16.29429        -1.14691
C          4.91779        17.07897        -0.82610
C          6.20814        19.20620        -1.26532
C          4.92469        18.50485        -1.31938
C          6.23798        20.61854        -1.28495
C          5.03108        21.39412        -1.61361
C          6.24055        23.43215        -0.63795
C          5.02164        22.92132        -1.40628
C          6.20685        24.71418        -0.02482
C          4.93271        25.45775         0.02403
C          6.13514        27.37199         1.23173
C          4.85714        26.68580         0.85819
C          6.10723        28.84345         1.42178
C          4.84115        29.49729         1.41173
C          8.61972         3.60513         2.30502
C          7.42642         4.25980         2.21948
C          8.56722         6.50976         1.95200
C          7.42704         5.60735         1.59032
C          8.51138         8.08456         1.98804
C          7.34710         8.79737         1.33178
C          8.53683        10.98113         1.46148
C          7.16481        10.24483         1.67322
C          8.59267        12.38769         0.89480
C          7.36876        13.00910         0.34824
C          8.66509        15.00053        -0.34160
C          7.40511        14.25500        -0.27917
C          8.69294        16.32522        -0.72625
C          7.48240        17.03377        -1.18033
C          8.67648        19.19587        -1.12798
C          7.43180        18.50143        -1.12998
C          8.67056        20.61808        -1.05429
C          7.44491        21.31329        -1.01834
C          8.61539        23.18222         0.16872
C          7.41667        22.68814        -0.60711
C          8.65146        24.67557         0.30340
C          7.41087        25.35510         0.40295
C          8.60551        27.38889         1.09420
C          7.41528        26.71885         0.87002
C          8.58626        28.72593         1.80561
C          7.31364        29.50231         1.57278
C         10.87164         3.66351         1.00487
C          9.97211         4.24332         2.06106
C         11.07077         6.52387         1.51943
C          9.89600         5.77116         1.98288
C         11.11084         8.01433         1.84294
C          9.80926         8.79657         1.58850
C         11.07030        10.97196         1.40195
C          9.80229        10.16067         1.44176
C         11.10338        12.34976         0.85468
C          9.89450        13.00379         0.51268
C         11.15978        14.99291        -0.19203
C          9.90662        14.33068         0.03568
C         11.21147        16.35937        -0.60264
C          9.93175        17.14064        -0.43860
C         11.12914        19.15047        -1.48617
C          9.90142        18.48302        -1.10166
C         11.15063        20.69454        -1.31624
C          9.90759        21.33721        -0.85985
C         11.19453        23.19808         0.17820
C          9.91277        22.58903        -0.31269
C         11.13748        24.70791         0.26384
C          9.87710        25.36089         0.46073
C         11.06721        27.48564         0.88060
C          9.85780        26.75647         0.80142
C         11.02161        28.90403         1.21226
C          9.84233        29.51328         1.57169
C         13.09104         3.71837        -0.02239
C         11.98087         4.38183         0.62181
C         13.32534         6.47975         0.51812
C         12.08826         5.82704         0.89119
C         13.38436         7.95439         0.53027
C         12.22898         8.71655         1.10760
C         13.60131        10.82296         0.86243
C         12.39079        10.17806         1.35209
C         13.64338        12.32428         0.99675
C         12.34816        12.98345         0.54457
C         13.58885        14.84029        -0.72400
C         12.37250        14.26430        -0.02002
C         13.67116        16.36544        -0.76077
C         12.43694        17.02845        -0.86150
C         13.68916        19.17075        -1.56799
C         12.40550        18.32777        -1.64089
C         13.66803        20.70295        -1.49708
C         12.42301        21.39464        -1.08269
C         13.64755        23.43770        -0.41767
C         12.43482        22.64365        -0.49894
C         13.57569        24.79095        -0.05714
C         12.32826        25.43943         0.28628
C         13.51344        27.61609         0.61845
C         12.30618        26.85653         0.57984
C         13.45351        29.03113         0.89164
C         12.25733        29.64693         1.15509
C         15.45001         3.64303        -0.77008
C         14.31297         4.34034        -0.19675
C         15.73531         6.42291         0.02279
C         14.42253         5.75480         0.10903
C         15.82737         7.89554         0.03187
C         14.66760         8.64569         0.34573
C         16.00690        10.72392         0.37031
C         14.72928        10.07150         0.47737
C         16.05864        12.12419         0.38123
C         14.87869        12.88387         0.36154
C         16.18243        14.93611        -0.39191
C         14.88996        14.16525        -0.33963
C         16.19248        16.38962        -0.69145
C         14.93169        17.07487        -0.95339
C         16.22843        19.19262        -1.42878
C         14.95090        18.44825        -1.27475
C         16.26252        20.70221        -1.29585
C         14.95287        21.45831        -1.28090
C         16.12865        23.43620        -0.40453
C         14.91838        22.80592        -0.68517
C         16.14203        24.89778        -0.25937
C         14.78164        25.62031        -0.14605
C         15.99739        27.66703         0.58508
C         14.77048        26.99386         0.37327
C         15.98427        29.06717         0.91649
C         14.70868        29.86135         0.76297
C         17.78538         3.56819        -1.62375
C         16.65539         4.24770        -1.00941
C         18.01272         6.40397        -1.11374
C         16.90059         5.64090        -0.56920
C         18.16745         7.77407        -0.79813
C         17.06770         8.50489        -0.21827
C         18.29697        10.68445        -0.67665
C         17.28789         9.93644         0.20223
C         18.44612        12.13824        -0.38946
C         17.41097        12.79655         0.51245
C         18.68072        14.96314        -0.02753
C         17.37983        14.31214         0.26204
C         18.68009        16.36251        -0.49873
C         17.43094        17.03240        -0.74020
C         18.74976        19.17835        -0.78095
C         17.51881        18.45031        -1.14050
C         18.78703        20.69593        -0.82220
C         17.43602        21.36561        -0.68294
C         18.57737        23.42484         0.12792
C         17.37977        22.71056        -0.34146
C         18.53619        24.82919         0.42172
C         17.32626        25.58031         0.26581
C         18.44401        27.63067         1.03240
C         17.25396        26.95049         0.59953
C         18.39120        29.01797         1.36112
C         17.14190        29.71468         1.27398
C         18.87491         4.23906        -2.05489
C         20.31467         6.32842        -2.01827
C         18.93316         5.74471        -2.10326
C         20.47619         7.63503        -1.64085
C         19.39804         8.42558        -1.14144
C         20.80089        10.54118        -0.72852
C         19.51000         9.93469        -1.24699
C         20.92713        11.86682        -0.47319
C         19.79647        12.77451        -0.41004
C         21.13307        14.89508        -0.23778
C         19.90669        14.14076        -0.18764
C         21.12021        16.26191        -0.33481
C         19.90675        17.03076        -0.49853
C         21.15299        19.24473        -0.33234
C         19.91849        18.48639        -0.55895
C         21.11080        20.54396         0.01216
C         19.76590        21.20020         0.23884
C         20.91341        23.38591         0.81395
C         19.77494        22.71296         0.33676
C         20.89514        24.75298         1.04843
C         19.71518        25.50180         0.86824
C         20.82831        27.63898         1.54965
C         19.67720        26.92773         1.14598
C         20.77006        29.00061         1.84512
C         19.56248        29.69051         1.76150
O         18.02311        15.01942         1.35363
O          4.84323        12.17883        -1.80796
O         15.51055        25.54174        -1.41597
O          4.27867        25.62563        -1.27793
O          8.59203        12.12287         2.36892
O         11.88262        10.73007         2.60725
O         13.70518        20.01892        -2.77508
O          2.38981        10.00298        -2.28202
O          1.69617        21.11390        -2.97149
O          1.40440        22.44277         1.02396
O          5.48429        12.00066         1.72694
O         17.07288        18.70957        -2.53096
O          4.52123        21.02891        -2.94960
O          2.13049         5.12863        -0.79135
O          9.22708         6.16428         3.21512
O          5.10356         4.10112         0.60884
O         16.74058         5.80688         0.89298
O          5.39258        26.56890         2.22735
O          6.83404        16.50293        -2.41432
O          6.94302         7.05811        -0.19405
O         15.79418        21.41891        -2.48355
O         15.79279        14.10235        -1.53116
O         12.25634         8.48106        -0.32614
O         17.80302        11.66815        -1.63376
O         10.98468        20.07236        -2.61894
O         11.30416        22.74124         1.58022
H         10.38725        22.73461         1.95007
O         12.35670        17.83533        -3.00748
H         12.42619        18.62807        -3.58859
O         13.75957        12.64915         2.43018
H         13.08143        12.09653         2.89634
O         14.68208        30.97612         1.65905
H         14.65199        30.63302         2.57536
O          4.98361        17.20375         0.63895
H          4.09742        17.46372         0.96891
O         19.54442        10.16625        -2.68890
H         18.97830        10.96149        -2.85311
O          9.87028        17.45724         1.01694
H          9.75716        16.60801         1.49715
O          8.45671        22.66812         1.56214
H          7.60718        23.02021         1.90783
O          3.91070        22.53483         0.62133
H          3.03606        22.49944         1.11586
O         11.35434         8.11638         3.26158
H         10.52013         7.83825         3.71277
O          8.42789         8.33650         3.41857
H          7.99712         9.21544         3.57274
O          4.53257         7.39394        -1.75065
H          3.87620         6.79659        -2.16885
O         18.43048         6.10832        -3.45196
H         18.59992         7.06803        -3.57423
O         17.80729        12.56759         1.87693
H         18.04649        13.44434         2.26462
O         17.96879         9.85719         1.49562
H         17.33461         9.50690         2.15570
O         19.28660        21.08770        -2.12476
H         18.63874        20.78328        -2.79717
O          8.57609        28.40763         3.25298
H          7.76656        27.87909         3.42598
O         13.33844        14.47661        -2.11767
H         14.20324        14.53001        -2.58735
O          5.01752        23.54946        -2.68020
H          4.68139        22.89511        -3.33611
O          2.22769        14.18071         0.85926
H          1.34057        13.80326         1.04507
O         10.70534         3.98679         3.30852
H         10.28479         4.55722         3.99107
O          2.47209        18.31565        -3.30941
H          2.37492        19.23741        -3.64650
O          6.85190        10.38712         3.07766
H          6.86323        11.35578         3.26234
O          2.15259        23.64148        -2.39851
H          1.73730        23.07927        -3.09532
O         19.24713        20.72119         1.51570
H         19.86484        21.00813         2.22013
H          1.18636         3.36122         2.77759
H         -0.84917         4.42462         1.88587
H         -0.71755         6.32069         0.35706
H         -0.61357         7.68665        -0.86566
H         -0.75667        10.03510        -1.32652
H         -0.81966        12.05435        -1.50270
H         -0.90140        14.48683        -1.64912
H         -0.96766        16.48893        -1.20630
H         -0.93719        18.93884        -1.15863
H         -1.04326        20.98804        -1.81044
H         -1.06889        23.12407        -0.69483
H         -1.01115        24.81890         0.39849
H         -1.01631        27.24292         0.83981
H          0.22005        29.37325         1.20476
H          3.35163         3.51250         3.39202
H          2.36040        30.58112         1.51325
H          6.11926         3.33498         3.74641
H          4.81132        30.57855         1.61444
H          8.64308         2.58763         2.72443
H          7.32714        30.59393         1.71550
H         10.81967         2.58513         0.79120
H          9.84011        30.58431         1.82612
H         12.98193         2.65257        -0.27352
H         12.23833        30.72894         1.35322
H         15.30624         2.59274        -1.06680
H         14.71323        30.29819        -0.27722
H         17.73946         2.47189        -1.71282
H         17.10921        30.78879         1.50910
H         19.71442         3.68890        -2.50595
H         21.15710         5.76351        -2.44322
H         21.46370         8.10681        -1.75454
H         21.70349         9.91193        -0.71756
H         21.92259        12.27215        -0.23524
H         22.09512        14.36349        -0.21896
H         22.08344        16.78927        -0.35827
H         22.12162        18.73992        -0.45372
H         22.04714        21.09479         0.17920
H         21.84297        22.83317         1.00645
H         21.81423        25.23654         1.40336
H         21.79526        27.12635         1.63639
H         21.68321        29.52848         2.15325
H         19.51524        30.76118         2.00566
