         276
 CSIRO Nanostructure Databank - Neutral Graphene Oxide Data Set
C        -11.39353         0.51495        -0.49457
C        -10.17710         1.36981        -0.67783
C         -8.90599         0.70684        -0.23701
C         -7.65200         1.51794        -0.02584
C         -6.36174         0.75263        -0.02637
C         -5.04841         1.48699         0.10179
C         -3.76080         0.75374         0.02417
C         -2.42602         1.44938         0.13421
C         -1.39637         0.77817         1.03093
C         -0.06531         1.53851         1.19633
C          1.21748         0.75329         1.42617
C          2.54045         1.48746         1.36642
C          3.83649         0.73936         1.21019
C          4.88126         1.49987         0.39205
C          6.20783         0.75039         0.27882
C          7.51997         1.46199         0.46061
C          8.72965         0.90494        -0.23540
C         10.04653         1.57197         0.01293
C         11.20140         0.65974         0.20138
C        -10.28941         2.86375        -0.83218
C         -9.31974         3.75895        -1.02138
C         -7.60750         2.86459         0.65112
C         -6.35349         3.69883         0.42089
C         -5.02567         2.96081         0.34884
C         -3.74530         3.63217        -0.05569
C         -2.43553         2.88925        -0.17271
C         -1.23397         3.70631         0.17101
C         -0.04883         3.01994         0.79605
C          1.29595         3.64858         0.56234
C          2.50666         3.01088         1.18241
C          3.79663         3.74358         1.01936
C          5.05702         2.98330         0.72851
C          6.35847         3.70455         0.85459
C          7.62347         2.88552         1.10353
C          8.90327         3.65107         0.78297
C         10.04941         2.96742         0.54243
C         -8.53456         4.76616        -1.39464
C         -7.76112         5.76252        -0.48934
C         -6.40412         5.13063        -0.01863
C         -5.12716         5.71912        -0.59318
C         -3.81928         4.98712        -0.66687
C         -2.49884         5.65106        -1.11834
C         -1.16107         5.00554        -0.60552
C          0.11934         5.78036        -0.48381
C          1.36448         5.05944         0.03605
C          2.60361         5.89898         0.26310
C          3.86417         5.19414         0.63087
C          5.05063         5.91919         1.21123
C          6.35452         5.16046         1.27593
C          7.61898         5.88609         0.95744
C          8.93632         5.13224         1.14132
C         -7.49127         7.08875        -1.19595
C         -6.40027         7.95280        -0.77796
C         -5.06273         7.20475        -0.49667
C         -3.73726         7.91696        -0.55096
C         -2.48312         7.19956        -0.97942
C         -1.20528         7.98625        -0.86157
C          0.02436         7.27628        -0.34601
C          1.18962         8.07043         0.16547
C          2.48673         7.37518         0.52386
C          3.76195         8.13019         0.74386
C          5.07516         7.40595         0.98345
C          6.37128         8.01682         0.52633
C          7.59048         7.16195         0.49810
C         -6.19720         9.37214        -1.16352
C         -5.02845        10.04139        -1.00123
C         -3.73424         9.42818        -0.59730
C         -2.42691        10.13300        -0.79882
C         -1.24366         9.47651        -0.69552
C          0.11423        10.14549        -0.86514
C          1.21528         9.60462         0.07844
C          2.58480        10.10628        -0.31027
C          3.84008         9.61467         0.37607
C          5.09234         9.91881        -0.42883
C          6.23950         9.22487        -0.32733
C        -11.32324        -0.82496        -0.34475
C         -9.99884        -1.58385        -0.31350
C         -9.00796        -0.66039         0.44530
C         -7.64823        -1.36376         0.68646
C         -6.38538        -0.78515         0.00760
C         -5.10847        -1.37584         0.61684
C         -3.81070        -0.66113         0.47729
C         -2.51885        -1.37346         0.25459
C         -1.23193        -0.64030         0.47180
C         -0.00706        -1.45939         0.73827
C          1.23881        -0.78413         1.26731
C          2.57324        -1.55490         1.16807
C          3.94051        -0.80483         1.32463
C          5.12670        -1.47107         0.50642
C          6.05146        -0.62496        -0.39441
C          7.39899        -1.28328        -0.75338
C          8.69265        -0.53350        -0.70317
C         10.03165        -1.27078        -0.89663
C         11.14394        -0.65635        -0.07357
C        -10.01670        -2.98505         0.29284
C         -8.91453        -3.60436         0.78062
C         -7.65044        -2.83842         1.01133
C         -6.34226        -3.61677         1.12766
C         -5.06460        -2.86582         0.88074
C         -3.76691        -3.60450         0.61525
C         -2.57853        -2.85961         0.07945
C         -1.28992        -3.57257        -0.15254
C          0.00942        -2.81449         0.04711
C          1.27153        -3.59884         0.10075
C          2.53928        -2.98396         0.67398
C          3.75722        -3.60352         0.01611
C          5.08638        -2.91915         0.11640
C          6.23365        -3.58341        -0.60457
C          7.44516        -2.77701        -0.93997
C          8.75412        -3.47837        -0.95994
C          9.90628        -2.78850        -0.79247
C         -8.92896        -5.10462         1.10118
C         -7.62167        -5.87612         0.85187
C         -6.31996        -5.16469         1.24352
C         -5.12357        -5.79961         0.47236
C         -3.79657        -5.09060         0.47833
C         -2.58919        -5.81669        -0.07471
C         -1.28970        -5.08754        -0.18311
C         -0.08065        -5.89192         0.26978
C          1.24022        -5.11383         0.20431
C          2.51899        -5.85497        -0.04030
C          3.67923        -5.01400        -0.53054
C          4.87035        -5.71804        -1.13269
C          6.43921        -5.04107        -0.18321
C          7.53672        -5.78599        -0.90353
C          8.73938        -4.95262        -1.38006
C         -7.59163        -7.21898         0.66447
C         -6.31509        -8.03820         0.90457
C         -5.12640        -7.27720         0.33010
C         -3.83398        -8.03288         0.22324
C         -2.54779        -7.30576         0.13681
C         -1.39749        -7.98385        -0.64822
C         -0.04600        -7.24236        -0.46459
C          1.22023        -8.02437        -0.48911
C          2.55244        -7.39429        -0.09638
C          3.64308        -8.00713        -0.97209
C          4.91527        -7.23243        -1.11542
C          6.22498        -7.93380        -0.74038
C          7.43173        -7.10948        -1.17828
C         -6.28098        -9.48385         0.43560
C         -5.16868       -10.12692         0.03588
C         -3.88600        -9.43058        -0.38647
C         -2.54514       -10.12801        -0.12734
C         -1.35665        -9.47789        -0.28827
C         -0.04575       -10.13630        -0.25313
C          1.16132        -9.51294        -0.38644
C          2.49959       -10.27357        -0.29357
C          3.60445        -9.54983        -1.12894
C          5.01686       -10.11545        -1.10224
C          6.15539        -9.39748        -1.13001
O         -2.06394         1.93215        -1.19934
O          6.50001        -3.25735        -1.98572
O         -2.94771        -7.87035         1.39281
O          0.87060        -2.94188        -1.12673
O         -6.20511        -5.48986         2.59123
O          6.16607        -5.32192         1.04001
O          2.86628         7.83827         1.87170
O         -4.49964        -0.71040         1.76451
O         -2.02149        -5.53684        -1.36964
O         -9.26019         0.74359        -1.65334
O          5.58856         5.46438         2.47632
O         -4.75566         5.05978        -1.81359
O          5.75096         3.56938        -0.45740
O          0.14608         7.60861         1.08416
O         -1.77656         7.70035        -2.17344
O          5.66432        -2.49480         1.38599
O          3.62642         5.58169        -0.75150
O          7.91374        -0.61308        -1.95699
O          3.43892         1.24806         2.48852
O          7.78520         2.76334         2.48468
O         -3.43030        -4.47481         1.74203
O         -7.61263        -1.79846         2.06379
O         -1.75224        -7.90477        -1.98633
O          3.36498        -3.86940        -1.37748
O          6.98712         0.55659         1.48258
O         -6.89293         1.36713        -1.25685
O          4.05902        -7.51377        -2.27886
O         -1.76936        -0.76720        -0.85524
O          0.73260        -7.32546        -1.68474
O          0.43836         1.27503         2.53989
O         -8.41931         3.19283         1.49576
O          0.31513        -1.47063         2.15691
O         -4.12661         3.48923         1.35988
O         -6.32553         4.81771         1.37666
O         -5.44376        -6.40284        -0.80824
O         -3.63339         8.70042         0.67619
O          2.56641        -2.71623         2.07699
O          2.12440        -5.46196         1.32114
O         -5.54433        -3.09843         2.22800
O         -0.23398         5.14047        -1.72918
O          1.61414         3.91288        -0.83367
O          9.36574         1.66358        -1.30942
O         -5.90285         7.65223         0.57307
O         -4.39809         1.12923        -1.20095
O          3.13953         3.65865         2.31972
O         -2.12753        -3.14528        -1.27258
O         -0.95042         3.85393         1.59203
O          5.87773         8.17505         1.91042
O          5.13505        -5.28973        -2.39429
H          4.66305        -4.43381        -2.55558
O         -8.52935         6.05488         0.67735
H         -8.12155         5.57871         1.44123
O          3.91582        10.38914         1.60540
H          3.54257         9.83849         2.32925
O         -4.02076        -9.29110        -1.81801
H         -3.22391        -8.78620        -2.15234
O         -2.52453         5.37646        -2.52490
H         -1.67092         5.67680        -2.91106
O         -9.99971        -5.74415         0.42096
H         -9.85641        -5.65613        -0.54380
O          0.94553        10.12370         1.40036
H          1.33489         9.50439         2.05772
O          9.98968         5.77689         0.42958
H          9.89409         5.57616        -0.52384
O         -0.34234        -6.18055         1.66063
H          0.50391        -6.15545         2.16125
O         -9.55775        -1.83591        -1.66327
H         -9.53332        -0.96753        -2.13580
O         -9.59804        -0.36773         1.72514
H         -9.16494        -0.95917         2.39026
O          8.74960        -4.96827        -2.81187
H          7.96503        -4.46251        -3.11892
O         -2.02720         0.69119         2.31159
H         -1.32197         0.64700         2.99979
O         -6.14397        -8.13423         2.33408
H         -6.13284        -7.20232         2.70014
O          2.87175       -10.50967         1.05706
H          3.04890        -9.64357         1.49167
O          3.14322        -9.81585        -2.47664
H          3.58265        -9.17452        -3.08022
O          5.32887        -0.55976        -1.63101
H          5.96885        -0.32600        -2.34084
O          6.22562        -7.97403         0.70987
H          6.31037        -7.04918         1.06906
O          4.24704         1.53689        -0.91111
H          4.74532         2.16831        -1.47820
O          4.30120        -0.96435         2.69407
H          4.34356        -1.92372         2.90025
O         10.44339        -1.06620        -2.27210
H          9.62282        -0.96786        -2.80760
O          0.56956         9.86268        -2.19366
H         -0.15084        10.05399        -2.82885
O         -6.41804        -1.26086        -1.35047
H         -6.67525        -0.51018        -1.93566
O          2.93351        -7.83380         1.22965
H          2.62014        -7.16743         1.88453
H         12.01249        -1.29402         0.15029
H         12.08178         1.07002         0.71916
H         11.00279         3.51847         0.48498
H          9.18665         5.21176         2.23449
H          8.53993         7.63708         0.20214
H          7.11609         9.53150        -0.91836
H          5.05696        10.80905        -1.07471
H          2.63163        11.13972        -0.69378
H          0.01416        11.25580        -0.71471
H         -2.44471        11.23363        -0.84810
H         -4.99208        11.09953        -1.30394
H         -7.06563         9.91390        -1.56772
H         -8.17794         7.43096        -1.98495
H         -8.37285         4.89876        -2.48248
H        -11.32262         3.25797        -0.78439
H        -12.37582         1.01259        -0.51466
H        -12.25789        -1.40024        -0.25128
H        -10.91752        -3.59594         0.11313
H         -9.13344        -5.20687         2.20297
H         -8.53503        -7.75514         0.46905
H         -7.19226       -10.07503         0.62218
H         -5.23353       -11.20465        -0.18526
H         -2.54581       -11.20687         0.09967
H         -0.06011       -11.23137        -0.12541
H          2.35626       -11.27903        -0.76288
H          5.08253       -11.19966        -1.28734
H          7.11584        -9.92628        -1.23702
H          8.25782        -7.61692        -1.70276
H          9.68406        -5.44583        -1.03758
H         10.85902        -3.34082        -0.84194
