         234
 CSIRO Nanostructure Databank - Neutral Graphene Oxide Data Set
C          1.33124         2.05054        -0.21827
C          1.21606         3.39271         0.15896
C          2.52257         1.34809        -0.13289
C          2.41449         4.19623         0.42620
C          1.18848         6.41431         0.24939
C          1.15179         7.73966        -0.04846
C          2.39212         5.64159         0.07978
C          2.32059         8.40317        -0.73434
C          1.20998        10.61954        -0.98498
C          1.20554        12.05322        -0.95923
C          2.31549         9.91263        -0.61869
C          2.34627        12.78628        -0.73304
C          1.28860        14.94550         0.10643
C          1.38415        16.25762         0.39966
C          2.23691        14.29967        -0.88084
C          2.52633        17.06355        -0.02903
C          2.57383        18.49074         0.23432
C          3.68773         1.92462         0.63181
C          3.72770         3.46119         0.53239
C          5.00828         1.27629         0.32875
C          4.95403         4.12021         0.00578
C          3.59529         6.30604        -0.19969
C          3.62464         7.71896        -0.39588
C          4.84604         5.54109        -0.38301
C          4.84262         8.43579        -0.28254
C          3.52280        10.65196        -0.18722
C          3.59708        12.11062        -0.46173
C          4.81271         9.89856        -0.00415
C          4.82991        12.75729        -0.48360
C          3.59513        14.98793        -0.89440
C          3.62081        16.43075        -0.57007
C          4.88328        14.20074        -0.81314
C          4.87847        17.16216        -0.81383
C          3.67004        19.24690        -0.03197
C          4.90763        18.65700        -0.57250
C          6.17791         1.98239         0.16822
C          6.14029         3.42653        -0.08867
C          7.44473         1.30746         0.19292
C          7.43517         4.09087        -0.36946
C          6.14854         6.34703        -0.51625
C          6.06903         7.76883        -0.18680
C          7.46065         5.62837        -0.44389
C          7.25457         8.47158         0.31174
C          6.09713        10.64776         0.00059
C          6.08292        12.08584        -0.18544
C          7.26630         9.94623         0.21793
C          7.29462        12.79954        -0.19399
C          6.16368        14.91925        -0.64518
C          6.14276        16.40081        -0.55886
C          7.33443        14.21497        -0.46694
C          7.41706        17.17112        -0.46391
C          6.19911        19.33841        -0.38917
C          7.42328        18.66754        -0.52248
C          8.66055         1.99389         0.20662
C          8.68035         3.43109         0.04574
C          9.90451         1.31061         0.32488
C          9.86812         4.15852         0.14824
C          8.66292         6.31186         0.01850
C          8.59779         7.73438         0.38927
C          9.87180         5.61303         0.16316
C          9.84718         8.49889         0.32804
C          8.53244        10.63424         0.51508
C          8.54314        12.16527         0.26399
C          9.82054         9.91205         0.42126
C          9.84858        12.80414         0.08366
C          8.64137        14.90930        -0.69431
C          8.66742        16.40441        -0.77398
C          9.98253        14.17826        -0.53797
C          9.97733        17.13344        -0.69234
C          8.65036        19.33647        -0.47292
C          9.94394        18.64621        -0.55036
C         11.11039         2.00753         0.39613
C         11.11090         3.46674         0.39562
C         12.35472         1.31880         0.39944
C         12.29093         4.17264         0.58998
C         11.08492         6.32570         0.43899
C         11.09554         7.77749         0.40501
C         12.31265         5.61523         0.61047
C         12.28900         8.47974         0.55300
C         11.01769        10.65169         0.43940
C         11.00557        12.07440         0.33843
C         12.32972         9.93651         0.19427
C         12.25188        12.80574         0.69205
C         11.07792        15.03923         0.10382
C         11.15454        16.40558        -0.16203
C         12.21843        14.31644         0.73424
C         12.37299        17.16209        -0.02113
C         11.15455        19.29241        -0.05175
C         12.37591        18.62001         0.01289
C         13.56877         1.99756         0.54232
C         13.52892         3.43259         1.03045
C         14.78983         1.33267         0.35517
C         14.79852         4.20320         0.78557
C         13.53990         6.30724         0.75839
C         13.53067         7.78716         1.04525
C         14.79402         5.59760         0.75121
C         14.81164         8.51702         0.69192
C         13.56022        10.67776         0.67193
C         13.52749        12.04330         0.78103
C         14.81645         9.92998         0.70931
C         14.77865        12.80651         1.01389
C         13.51773        15.09375         0.99390
C         13.56064        16.42120         0.26997
C         14.76212        14.26126         0.63183
C         14.79951        16.92737        -0.03142
C         13.55227        19.40917         0.35921
C         14.85149        19.04989         0.00497
C         16.03262         2.00378         0.41664
C         16.04864         3.43914         0.77591
C         17.22585         1.36323         0.07682
C         17.33661         4.21634         0.49891
C         16.03909         6.34880         0.57554
C         16.02403         7.79551         0.55250
C         17.24295         5.67609         0.33318
C         17.26017         8.50432         0.41249
C         16.06595        10.61971         0.72415
C         16.10069        12.08019         0.95431
C         17.27008         9.91797         0.57191
C         17.36121        12.83428         0.68005
C         16.07695        14.95397         0.46584
C         16.05250        16.46728         0.65052
C         17.34175        14.21181         0.61962
C         17.28098        17.22263         0.15603
C         16.11692        19.50731         0.43694
C         17.31987        18.72830         0.30931
C         18.42790         2.08060        -0.20232
C         18.46134         3.49463        -0.10724
C         19.57140         1.40072        -0.72359
C         19.57257         4.22828        -0.58806
C         18.43238         6.37759        -0.04575
C         18.46634         7.79065         0.07240
C         19.58850         5.66538        -0.50890
C         19.68536         8.47421        -0.20825
C         18.56445        10.64204         0.63158
C         18.60024        12.11089         0.53472
C         19.82226         9.88766         0.17444
C         19.80575        12.76423         0.24809
C         18.58424        14.98920         0.56264
C         18.55187        16.43776         0.15887
C         19.87621        14.24060         0.31984
C         19.86343        17.13507         0.35265
C         18.54671        19.36103         0.37592
C         19.84368        18.65548         0.43032
C         20.67067         2.10245        -1.16111
C         20.69443         3.52633        -1.11549
C         21.81886         4.26907        -1.57233
C         20.74027         6.37429        -0.94157
C         20.78886         7.80513        -0.77131
C         21.84019         5.64165        -1.48459
C         21.95383         8.57280        -1.12657
C         20.97364        10.66315        -0.31123
C         20.99433        12.05675        -0.14769
C         22.02857         9.92892        -0.93822
C         22.21270        12.82665        -0.37190
C         20.95880        14.96992        -0.47507
C         21.09070        16.43990        -0.08615
C         22.23898        14.17402        -0.45007
C         22.22913        17.17681        -0.25433
C         21.08803        19.33282         0.05180
C         22.22148        18.61704        -0.18143
O          7.77035         7.97403         1.60262
O          8.42154        11.57862         1.61115
O          6.74348        16.75312         0.77267
O          3.15141         4.05083         1.75310
O          8.57736        15.60911        -1.99915
O         15.27335        14.51575        -0.70568
O         19.97300        17.80556         1.63938
O         15.48701        12.49144         2.24495
O          7.63743         4.79467        -1.63488
O         17.84618        16.71350        -1.09116
O          4.83449        18.06343        -1.95336
O          3.98070        10.24440         1.16293
O         14.91519        17.96900        -0.92929
O         11.90655        13.55437         1.95233
O          5.40703         5.91292        -1.69116
O         19.51037        10.10218         1.59936
O         10.21433        17.94763        -1.86789
O         16.98543         3.77123         1.85311
O         19.55273        14.76146         1.63611
O          4.29437        14.60900        -2.12998
O         12.49351         9.95593        -1.28765
H         11.71838         9.49599        -1.67596
O          3.41741         1.55553         2.02250
H          3.07443         2.37784         2.45527
O         13.45514         7.86942         2.52526
H         14.17025         7.30404         2.88958
O         10.50030        13.92846        -1.87758
H         10.13286        14.63989        -2.45865
O          2.12897         8.14977        -2.18013
H          2.22410         7.18365        -2.32373
O          1.64449        14.54987        -2.18651
H          2.37509        14.47951        -2.84187
O         15.95583        16.76781         2.06078
H         15.16430        16.30761         2.44094
O         20.46691        14.95847        -1.85188
H         21.13041        15.40353        -2.41923
O         13.42424         3.33623         2.50016
H         12.61946         2.81150         2.69951
O         13.59553        15.37608         2.41198
H         13.10982        14.64682         2.87337
H          0.43738         1.54005        -0.60807
H          0.25153         3.90378         0.03180
H          2.55888         0.29163        -0.43481
H          0.29996         5.92370         0.67255
H          0.22994         8.31802         0.10920
H          0.30157        10.09513        -1.31312
H          0.27141        12.58139        -1.19621
H          0.42978        14.35715         0.46213
H          0.62447        16.74379         1.03019
H          1.68443        18.95858         0.68159
H          5.05940         0.18610         0.47269
H          3.68509        20.31083         0.24874
H          7.44655         0.21339         0.30756
H          6.19810        20.43075        -0.25476
H          9.91077         0.21092         0.34908
H          8.65822        20.43042        -0.35711
H         12.35999         0.23317         0.21787
H         11.11685        20.36823         0.17525
H         14.77575         0.26971         0.06797
H         13.38296        20.35315         0.89815
H         17.20698         0.28144        -0.12502
H         16.19713        20.50412         0.89603
H         19.55436         0.30298        -0.78311
H         18.57249        20.46130         0.42011
H         21.54528         1.56936        -1.56106
H         22.68222         3.73003        -1.98828
H         22.73070         6.17783        -1.83795
H         22.80772         8.06604        -1.59483
H         22.92619        10.46278        -1.27948
H         23.16272        12.27536        -0.42950
H         23.20094        14.68795        -0.59242
H         23.17010        16.69333        -0.55517
H         21.08575        20.42751        -0.05561
H         23.15505        19.14312        -0.42713
