         420
 CSIRO Nanostructure Databank - Neutral Graphene Oxide Data Set
C         27.99142        27.35896        -0.24148
C         27.94604        28.77696        -0.32643
C         26.71542        29.47641        -0.48305
C         27.88215        31.62339        -0.46243
C         26.68554        30.85125        -0.53394
C         27.86611        33.06546        -0.49212
C         26.64977        33.80230        -0.48832
C         27.85066        35.92969        -0.47454
C         26.64253        35.17926        -0.46326
C         27.85103        37.37086        -0.45244
C         26.62914        38.13482        -0.34226
C         27.80027        40.29882        -0.38973
C         26.60868        39.50040        -0.27170
C         27.81012        41.68692        -0.25757
C         26.62156        42.45200         0.01606
C         27.89593        44.54328         0.29636
C         26.65459        43.79622         0.25575
C         27.90895        45.92508         0.60358
C         30.41389        27.41130         0.06467
C         29.18766        26.69946        -0.05603
C         30.39589        28.82795        -0.04608
C         29.15797        29.51585        -0.24751
C         30.35390        31.67465        -0.33208
C         29.12566        30.94188        -0.34413
C         30.34053        33.08854        -0.45583
C         29.09197        33.78938        -0.50315
C         30.32629        35.93721        -0.56746
C         29.08636        35.22046        -0.52598
C         30.31372        37.36111        -0.55121
C         29.06919        38.06411        -0.52267
C         30.36514        40.26883        -0.45309
C         29.05383        39.54045        -0.64215
C         30.30775        41.69528        -0.03098
C         29.09345        42.47053        -0.50478
C         30.35039        44.58411         0.10888
C         29.10650        43.87786         0.04501
C         30.31555        46.01376         0.24758
C         29.09922        46.64888         0.52662
C         32.93368        24.65177         0.59238
C         31.75030        25.30901         0.37285
C         32.82933        27.49768         0.57674
C         31.66748        26.74373         0.33968
C         32.84349        28.91475         0.35429
C         31.61562        29.57206         0.02873
C         32.82287        31.69734        -0.23340
C         31.59598        30.98051        -0.17565
C         32.81151        33.10875        -0.43752
C         31.57370        33.80993        -0.50528
C         32.81101        35.94541        -0.66868
C         31.57242        35.23385        -0.58940
C         32.77855        37.37109        -0.59473
C         31.56722        38.05209        -0.48900
C         32.88917        40.25212         0.04269
C         31.57646        39.48116        -0.11333
C         32.88463        41.71490         0.00811
C         31.62141        42.43722         0.17709
C         32.87574        44.60785         0.36736
C         31.59085        43.89448         0.07053
C         32.87047        46.01982        -0.18142
C         31.54524        46.76666        -0.10232
C         32.82125        48.86704        -0.06432
C         31.62836        48.22105         0.04362
C         35.40807        23.26657         1.26060
C         35.36418        24.69441         1.13589
C         34.13558        25.35138         0.91142
C         35.36549        27.60064         1.19326
C         34.05302        26.81079         1.03627
C         35.34881        29.11803         0.95452
C         34.05697        29.65148         0.35771
C         35.29998        31.71186        -0.26606
C         34.05966        31.00672        -0.03796
C         35.27219        33.07735        -0.53986
C         34.04545        33.81705        -0.55255
C         35.31508        35.93319        -0.78580
C         34.05580        35.23210        -0.70664
C         35.33552        37.39435        -0.93672
C         34.02546        38.15464        -0.75553
C         35.33101        40.25444        -0.42671
C         34.11327        39.55346        -0.34821
C         35.34598        41.69172        -0.31041
C         34.10619        42.43369        -0.14543
C         35.41257        44.58830         0.18569
C         34.11353        43.84273        -0.02409
C         35.38301        46.05873        -0.22510
C         34.13792        46.78567        -0.18611
C         35.31243        48.96865        -0.41932
C         34.07465        48.17886        -0.22817
C         35.42840        50.33926         0.09434
C         37.84721        23.25121         1.26758
C         36.58560        22.58063         1.36166
C         37.85759        24.66696         1.13583
C         36.61086        25.43198         1.16297
C         37.89000        27.58175         0.98010
C         36.61884        26.83079         1.11938
C         37.84812        28.96586         0.39829
C         36.54718        29.65105         0.20187
C         37.81791        31.62841        -0.53711
C         36.55395        30.95872        -0.24451
C         37.81311        33.05631        -0.89511
C         36.51154        33.79678        -0.89947
C         37.79928        35.96358        -0.83794
C         36.53859        35.26630        -0.79143
C         37.82265        37.36866        -0.72351
C         36.59078        38.11967        -0.68271
C         37.85117        40.20730        -0.20696
C         36.56527        39.50256        -0.53164
C         37.79717        41.68450        -0.48252
C         36.59983        42.39343        -0.40034
C         37.79195        44.56163        -0.53240
C         36.62675        43.85797        -0.33205
C         37.83980        46.00713        -0.47570
C         36.58874        46.72405        -0.43498
C         37.87846        48.91955        -0.32746
C         36.61986        48.19590        -0.58862
C         37.87644        50.26522        -0.06745
C         36.63375        50.95512         0.19675
C         40.30556        20.44322         1.76824
C         39.12076        21.12115         1.63624
C         40.31364        23.20254         1.12292
C         39.08505        22.52213         1.33346
C         40.30698        24.61373         0.89098
C         39.09626        25.32317         0.95548
C         40.30725        27.35413         0.13286
C         39.21112        26.82204         1.04703
C         40.28044        28.73185        -0.44216
C         38.94432        29.46563        -0.54202
C         40.29156        31.64691        -0.65218
C         39.03109        30.96735        -0.49681
C         40.29292        33.07801        -0.77002
C         39.07473        33.81584        -0.82532
C         40.29229        35.93219        -1.08900
C         39.05169        35.22272        -0.91421
C         40.30107        37.38075        -1.15596
C         39.06783        38.10689        -0.85135
C         40.24178        40.26614        -1.24144
C         39.06025        39.48279        -0.74368
C         40.32385        41.67120        -0.71985
C         39.08421        42.44039        -0.31763
C         40.32496        44.57105        -0.72951
C         39.02081        43.81653        -1.00352
C         40.29003        45.97910        -0.27577
C         39.07534        46.69187        -0.43187
C         40.32697        48.78725         0.20802
C         39.17908        48.19382        -0.58227
C         40.29390        50.11430         0.52118
C         39.21450        50.99773        -0.07397
C         40.24095        52.92958         1.14699
C         39.18011        52.38614         0.50770
C         42.79598        20.43193         1.71631
C         41.55593        21.10774         1.57887
C         42.79722        23.13456         0.99026
C         41.55777        22.48419         1.23030
C         42.76455        24.49750         0.44604
C         41.55044        25.30700         0.58629
C         42.82754        27.37083        -0.01109
C         41.60565        26.66265         0.31183
C         42.77514        28.80896        -0.31513
C         41.56237        29.49032        -0.48942
C         42.76413        31.65134        -0.70324
C         41.52393        30.92597        -0.62565
C         42.76107        33.06296        -0.89118
C         41.52533        33.78445        -0.91567
C         42.75277        35.85973        -1.51045
C         41.49561        35.19043        -1.13902
C         42.74516        37.36643        -1.64380
C         41.50299        38.09238        -1.31551
C         42.75316        40.22254        -1.04825
C         41.55212        39.51988        -1.15197
C         42.79163        41.62333        -0.73747
C         41.52367        42.31493        -0.64884
C         42.77063        44.39854         0.04414
C         41.56783        43.78559        -0.52997
C         42.62899        45.73682         0.71243
C         41.46517        46.58651         0.22815
C         42.67028        48.59235         1.03962
C         41.47397        47.95892         0.54583
C         42.65693        49.95490         1.36136
C         41.32997        50.66955         1.46340
C         42.61459        52.77808         1.80060
C         41.43131        52.17051         1.43799
C         43.99292        21.09592         1.53477
C         45.28001        23.22654         1.08634
C         44.02721        22.46825         1.15941
C         45.28129        24.57907         0.76193
C         44.07690        25.24305         0.24510
C         45.34170        27.36820        -0.26576
C         44.03990        26.70902         0.09749
C         45.26953        28.87539        -0.22631
C         44.02469        29.53661        -0.38833
C         45.24826        31.65569        -0.73248
C         44.00775        30.94862        -0.59049
C         45.22793        33.04086        -1.02497
C         44.01131        33.76164        -1.06873
C         45.27194        35.89818        -1.29549
C         44.03305        35.16472        -1.30607
C         45.29079        37.33302        -1.29060
C         44.06018        38.08564        -1.57490
C         45.28328        40.20293        -0.78124
C         44.05406        39.56424        -1.27890
C         45.24370        41.57900        -0.38151
C         43.98548        42.29420        -0.41062
C         45.18974        44.34711         0.42549
C         43.95498        43.68815         0.02523
C         45.16666        45.73536         0.78322
C         43.93799        46.47684         0.80411
C         45.13975        48.52816         1.42182
C         43.91945        47.84398         1.08588
C         45.11468        49.91580         1.75085
C         43.85321        50.65026         1.72221
C         43.80114        52.02684         1.97731
C         47.73206        23.23005         1.36762
C         46.54442        22.57257         1.35391
C         47.80063        24.69600         1.33899
C         46.45673        25.42297         1.00413
C         47.73264        27.46994         0.50727
C         46.53832        26.78010         0.45584
C         47.72026        28.93771         0.26129
C         46.47851        29.60194        -0.21345
C         47.75509        31.69474        -0.73052
C         46.49560        30.97475        -0.54099
C         47.73884        33.01435        -1.14830
C         46.47029        33.71710        -1.53064
C         47.73190        35.90792        -1.19112
C         46.50001        35.20076        -1.26079
C         47.72409        37.32677        -1.01564
C         46.48701        38.04246        -1.06383
C         47.71118        40.14106        -0.47137
C         46.48072        39.47289        -0.79740
C         47.68601        41.52238        -0.06538
C         46.43342        42.22950         0.00925
C         47.61441        44.29645         0.75479
C         46.40853        43.63074         0.39561
C         47.59728        45.64756         1.11515
C         46.38523        46.39847         1.11129
C         47.56611        48.49165         1.79517
C         46.36908        47.80388         1.45208
C         47.51890        49.85140         2.11471
C         46.31562        50.55260         2.09916
C         50.23309        24.67447         0.73036
C         49.03579        25.42314         1.00634
C         50.26400        27.54289         0.64256
C         48.99015        26.80789         0.79578
C         50.28501        28.91883         0.11746
C         49.03323        29.67729         0.09534
C         50.24461        31.63738        -0.74970
C         49.02317        31.01987        -0.51278
C         50.28938        33.01869        -1.25747
C         48.97747        33.74954        -1.44501
C         50.19549        35.92001        -1.16715
C         48.98215        35.22100        -1.28969
C         50.17091        37.31541        -0.89146
C         48.95729        38.02040        -0.82459
C         50.16776        40.15398        -0.37771
C         48.93892        39.44308        -0.53928
C         50.13886        41.54478        -0.02564
C         48.90033        42.18078         0.22646
C         50.14434        44.31744         0.72912
C         48.88843        43.50292         0.95061
C         50.14257        45.68153         1.07212
C         48.87032        46.29735         1.51634
C         50.11767        48.50546         1.63877
C         48.86028        47.76724         1.84880
C         51.40060        25.27096         0.37086
C         52.73751        27.34327        -0.26528
C         51.55785        26.72012         0.46496
C         52.73899        28.85235        -0.20589
C         51.50014        29.55717        -0.21273
C         52.71969        31.67065        -0.66048
C         51.50045        30.97030        -0.52139
C         52.72944        33.10731        -0.87914
C         51.52272        33.79876        -1.06922
C         52.69458        35.93348        -1.20932
C         51.48836        35.21645        -1.17770
C         52.59082        37.43352        -1.46220
C         51.48064        37.99156        -0.56273
C         52.61730        40.22495        -0.52243
C         51.41306        39.49778        -0.55697
C         52.59813        41.62371        -0.19826
C         51.37319        42.26871         0.07838
C         52.57517        44.42037         0.40273
C         51.35590        43.67573         0.39821
C         52.56928        45.81126         0.71457
C         51.33297        46.44793         1.04458
C         51.26633        47.87122         1.30416
C         55.19731        27.44981         0.14550
C         54.05257        26.73635         0.15451
C         55.20528        28.86731        -0.15579
C         53.95728        29.55958        -0.30562
C         55.20208        31.68064        -0.59294
C         53.96123        30.98073        -0.50658
C         55.20248        33.12553        -0.80405
C         53.96104        33.82715        -0.91431
C         55.18814        35.95143        -1.14994
C         53.94180        35.24841        -1.10592
C         55.21709        37.43643        -1.22205
C         53.90166        38.19331        -1.29203
C         55.08420        40.26172        -0.58988
C         53.87800        39.57884        -0.78404
C         55.07328        41.68691        -0.32338
C         53.83352        42.35322        -0.13803
C         55.03335        44.48245         0.17887
C         53.81294        43.75368         0.13851
C         55.00035        45.88205         0.46187
C         53.81542        46.51927         0.72187
C         56.40292        29.58090        -0.23183
C         56.40195        30.96054        -0.45682
C         56.39438        33.84847        -0.91855
C         56.38170        35.23945        -1.07986
C         56.36590        38.16709        -0.67306
C         56.31745        39.51326        -0.50364
C         56.27377        42.44337        -0.28510
C         56.25574        43.80465        -0.05217
O         48.90692        46.74781         2.92074
O         54.73507        38.01940        -2.49066
O         40.15094        27.53198        -1.31696
O         51.23373        27.31458         1.73672
O         34.54219        27.27654         2.36118
O         30.73337        41.94184         1.30522
O         49.71561        33.21484        -2.59992
O         35.90160        48.73777        -1.74943
O         42.64804        36.52717        -2.83847
O         37.09036        33.30907        -2.17118
O         29.86523        40.01911        -1.78745
O         43.40626        24.56816        -0.87896
O         32.14160        39.67937         1.21326
O         34.60473        37.90320        -2.09683
O         46.98867        25.32815         2.36476
O         32.09543        46.23424        -1.38237
O         48.30841        29.65224         1.40248
O         38.05355        28.78883         1.83760
O         44.20592        39.06187        -2.66299
O         41.25671        44.43058        -1.87176
O         38.38485        29.19712        -1.86356
H         38.84232        28.39950        -2.22083
O         35.60296        44.63404         1.65316
H         34.72265        44.88166         2.03922
O         35.41821        29.73672         2.27837
H         34.95325        29.12288         2.89318
O         42.26371        45.41405         2.11365
H         43.03410        44.96492         2.52288
O         52.15898        37.62288        -2.82543
H         52.96713        37.59045        -3.38617
O         45.57178        27.02105        -1.68456
H         44.71093        27.07709        -2.15229
O         38.87603        43.63612        -2.42142
H         39.77733        43.71771        -2.81499
O         37.99622        40.14033         1.29568
H         37.12876        40.40517         1.67411
O         32.91152        44.80215         1.86415
H         32.66364        43.94083         2.26738
O         29.24376        42.60934        -1.94828
H         28.46552        43.09819        -2.28791
O         51.84866        37.60248         0.79947
H         51.17218        37.96399         1.41008
O         39.48677        48.42940        -2.00594
H         38.71974        48.11273        -2.53107
O         39.76375        27.03090         2.38420
H         39.35626        27.85425         2.74326
O         52.53277        26.97655        -1.67387
H         53.28121        27.34568        -2.18894
O         39.99563        40.42160        -2.69562
H         40.83647        40.71216        -3.11039
O         39.56586        51.18581        -1.48027
H         39.59950        50.28639        -1.89688
O         40.81503        50.35048         2.81872
H         41.49581        50.64612         3.46049
O         46.40388        33.59414        -3.00752
H         45.62692        34.11360        -3.30804
O         39.22092        42.69568         1.11486
H         39.01129        41.84491         1.57144
O         48.90395        43.14879         2.38352
H         48.93879        43.98970         2.89003
H         27.05399        26.78888        -0.31351
H         25.78045        28.90162        -0.55052
H         25.71584        31.35456        -0.64527
H         25.68782        33.27290        -0.48168
H         25.67483        35.69735        -0.44224
H         25.67250        37.60065        -0.27062
H         25.63987        40.00227        -0.14354
H         25.65258        41.93462         0.05567
H         25.71904        44.33539         0.46398
H         26.96394        46.43980         0.82643
H         29.17766        25.60422         0.02056
H         29.06718        47.73817         0.66852
H         32.94356        23.55584         0.52601
H         30.85585        24.71214         0.15338
H         32.83197        49.96400        -0.00204
H         30.71710        48.79803         0.25502
H         34.46697        22.70389         1.31259
H         34.52599        50.86372         0.43901
H         36.55110        21.49003         1.47948
H         36.66954        51.98827         0.56853
H         40.30429        19.37416         2.02572
H         38.18244        20.57473         1.79905
H         40.22989        53.99633         1.42202
H         38.33082        53.03305         0.24519
H         42.79607        19.36565         1.98496
H         42.66213        53.87388         1.88492
H         44.92781        20.53702         1.67255
H         44.71344        52.57526         2.24473
H         48.65995        22.64627         1.44027
H         46.55942        21.47834         1.44698
H         48.43470        50.38178         2.40748
H         46.32866        51.61487         2.37397
H         50.17169        23.57855         0.69968
H         50.11645        49.60104         1.72545
H         52.23016        24.66835        -0.02480
H         52.17288        48.47610         1.16856
H         56.15558        26.96908         0.39425
H         54.07568        25.66204         0.38890
H         55.94616        46.44261         0.48241
H         53.83323        47.59226         0.95345
H         57.35796        29.05095        -0.10576
H         57.36868        31.47780        -0.51000
H         57.36655        33.34125        -0.87273
H         57.34254        35.76651        -1.15273
H         57.28174        37.62009        -0.40966
H         57.21910        40.02844        -0.14487
H         57.23855        41.95009        -0.46313
H         57.19640        44.37370        -0.03482
