         260
 CSIRO Nanostructure Databank - Neutral Graphene Oxide Data Set
C         30.29817        31.74947         1.07258
C         29.73940        32.81035         1.31174
C         30.23966        36.42103         1.40725
C         30.60594        37.39483         0.76577
C         30.30318        40.28568        -0.96460
C         30.32992        41.48318        -1.31386
C         32.69520        28.91270         0.64137
C         31.65815        29.54410         0.86228
C         32.71067        31.63382         0.09064
C         31.34637        30.92901         0.49840
C         32.78970        33.11983         0.09649
C         29.31445        34.17272         1.31545
C         32.90024        35.79223        -0.23294
C         30.04689        35.13207         1.98573
C         32.69232        37.22611        -0.51450
C         31.30211        37.93418        -0.44517
C         32.69704        40.22051        -0.77041
C         31.40857        39.45309        -0.47206
C         32.71443        41.65872        -1.22656
C         31.45035        42.30901        -1.58344
C         32.69219        44.36218        -1.77718
C         31.65389        43.67628        -1.88213
C         35.48860        27.30931         0.79105
C         35.27458        28.69870         0.68830
C         34.03980        29.35136         0.28509
C         35.28622        31.59032         0.52153
C         34.03345        30.89389         0.09977
C         35.25116        33.01539         0.66605
C         34.09557        33.74550         0.36047
C         35.18095        36.04626         0.73884
C         34.02526        35.15926         0.31965
C         35.22915        37.37687        -0.04581
C         33.99922        37.96883        -0.66984
C         35.22521        40.24654        -0.79364
C         33.96987        39.44981        -0.95709
C         35.13141        41.73988        -0.48181
C         33.91116        42.37601        -1.12692
C         35.23350        44.63275        -1.08133
C         33.94959        43.87102        -1.21655
C         35.48458        46.01535        -1.54992
C         37.84209        27.21754         0.76627
C         36.51016        26.60009         0.85553
C         37.77128        28.72091         0.76656
C         36.51516        29.41333         0.71982
C         37.75810        31.56436         1.01256
C         36.47433        30.86021         0.71718
C         37.75547        33.05272         1.18785
C         36.42556        33.83162         1.21219
C         37.70310        36.03068         0.66131
C         36.46285        35.19051         0.46406
C         37.64414        37.38535         0.44112
C         36.39615        38.09384         0.07570
C         37.41266        40.49751         0.34115
C         36.44743        39.55007        -0.27950
C         37.64230        41.76038        -0.10644
C         36.49086        42.41691        -0.79560
C         37.85191        44.62362        -0.69889
C         36.56946        43.88974        -1.02334
C         37.88440        46.08582        -0.91988
C         36.59593        46.52750        -1.35805
C         40.02961        24.66615        -1.09436
C         39.04938        25.22259        -0.58888
C         40.18148        27.36399        -0.38953
C         38.99652        26.52999         0.08450
C         40.22587        28.78198         0.07660
C         38.99131        29.46056         0.60177
C         40.27537        31.61866         0.29376
C         39.02293        30.84495         0.69028
C         40.34332        33.07243         0.79169
C         39.04026        33.83178         1.03410
C         40.19164        35.92549         0.12273
C         39.01610        35.32113         0.82056
C         39.92673        37.14379        -0.42493
C         38.92507        38.04105         0.13365
C         40.36911        40.23982         0.19846
C         39.21309        39.33686         0.45556
C         40.23603        41.76698         0.26831
C         38.86383        42.55130         0.40135
C         40.18257        44.73416         0.16841
C         38.95264        43.96315        -0.19916
C         40.19640        46.23700        -0.00207
C         38.96100        46.86322        -0.57325
C         40.17822        48.95438        -0.33949
C         39.17715        48.27006        -0.63681
C         42.66933        24.50837        -1.35380
C         41.36348        25.17619        -1.41040
C         42.76500        27.17743        -0.36192
C         41.44335        26.62632        -0.81950
C         42.82147        28.59760         0.17887
C         41.52884        29.34214         0.63439
C         42.91837        31.60945         0.35964
C         41.59962        30.87886         0.59947
C         42.87407        33.06463         0.04723
C         41.61859        33.80449         0.37765
C         42.81668        35.94806        -0.44597
C         41.48490        35.20869        -0.14249
C         42.87456        37.45033        -0.27719
C         41.75609        38.31854        -0.69009
C         42.89044        40.37151        -0.19195
C         41.63329        39.60948        -0.25391
C         42.81097        41.85372        -0.06872
C         41.49478        42.57392        -0.05338
C         42.69067        44.73418         0.24368
C         41.50680        44.04725         0.21047
C         42.78704        46.21818        -0.08997
C         41.47943        46.99844        -0.00058
C         42.74754        48.99812         0.30006
C         41.46892        48.39439        -0.01742
C         43.70251        25.25816        -1.37509
C         45.30492        27.08726        -0.48728
C         44.02027        26.50936        -0.85417
C         45.35273        28.58092        -0.12558
C         44.04704        29.38328        -0.31369
C         45.32488        31.53440        -0.31527
C         44.14494        30.81375         0.18990
C         45.33401        33.02636        -0.43110
C         44.06647        33.79662        -0.18413
C         45.38032        35.96748        -0.37438
C         44.09324        35.20784        -0.26705
C         45.41551        37.45505        -0.10029
C         44.12733        38.16203         0.12349
C         45.41360        40.38555         0.34374
C         44.18806        39.65176        -0.07132
C         45.35647        41.75673         0.46417
C         44.05477        42.51651         0.43859
C         45.29748        44.77777         0.28907
C         43.99009        44.02066         0.51103
C         45.17214        46.24123         0.77533
C         44.00710        46.91500         0.58691
C         43.71622        48.30607         0.67468
C         47.73050        27.22085        -0.75762
C         46.64510        26.65742        -0.89879
C         48.01419        28.53666        -0.05096
C         46.67406        29.30067        -0.31940
C         47.88785        31.51862         0.11709
C         46.64583        30.79767        -0.32312
C         47.85720        33.01596         0.24467
C         46.66803        33.74448        -0.33041
C         47.85704        35.95608         0.43677
C         46.69785        35.23308        -0.28058
C         47.90672        37.44003         0.09724
C         46.64045        38.21020         0.27534
C         47.88695        40.28926         0.82852
C         46.62995        39.57468         0.46889
C         47.87460        41.78577         0.94678
C         46.56281        42.53653         0.85877
C         47.87682        44.78720         0.75382
C         46.54076        44.03715         0.83195
C         47.61709        46.17719         1.20610
C         46.48394        46.67787         1.13819
C         50.43439        28.96882        -0.95454
C         49.17054        29.36698        -0.54219
C         50.40655        31.64310        -0.34741
C         49.19716        30.77809        -0.05649
C         50.44698        32.98725         0.38775
C         49.15536        33.78238         0.43955
C         50.42336        35.96671         0.20670
C         49.19024        35.24688         0.25785
C         50.47425        37.38957         0.18618
C         49.20749        38.14958         0.20680
C         50.53611        40.27100         0.81420
C         49.21683        39.55277         0.73368
C         50.45720        41.75332         0.46245
C         49.16156        42.50518         0.59858
C         50.51583        44.49691         1.03152
C         49.16243        44.03946         0.69599
C         51.53599        29.59205        -1.18894
C         52.86144        31.74363        -0.46734
C         51.95024        30.61839        -0.18829
C         52.85343        32.95560        -0.22954
C         51.74509        33.77381         0.29771
C         52.74224        36.09442        -0.11685
C         51.68012        35.22167         0.16973
C         52.86011        37.31115        -0.37417
C         51.67529        38.25943        -0.27809
C         52.92799        40.43620         0.44433
C         51.89406        39.39730         0.73426
C         52.95285        41.66171         0.57847
C         51.98457        42.70338         0.22130
C         51.58976        43.87877         1.04922
O         40.73416        37.71177        -1.40351
O         39.20648        34.76797         2.15331
O         42.95452        27.46451         1.06030
O         45.37443        27.58948         0.90302
O         47.83144        40.96536         2.13719
O         45.17581        32.22310        -1.65167
O         43.86713        43.22478         1.71662
O         43.72442        40.05184        -1.39390
O         46.36392        43.35405         2.08212
O         48.25850        33.41658         1.59220
O         49.66301        42.03105        -0.71229
O         40.57628        41.00983         1.46501
O         42.30297        31.34880         1.74851
O         42.20155        42.35892        -1.31671
O         38.26901        39.95354         1.30090
O         41.28691        33.51933         1.78343
O         48.56818        44.64879        -0.50314
O         41.98026        35.38586        -1.49787
O         38.90353        26.57836         1.51926
O         31.69008        31.16913        -0.85952
O         39.96057        45.62302         1.31979
O         49.89916        39.78979         2.01323
O         36.27442        39.87643        -1.70945
O         34.08812        38.50051        -2.04417
O         34.14870        29.96358        -1.02267
O         43.23203        37.72229         1.16529
O         45.42864        36.93515        -1.47951
O         39.99414        28.47750        -1.33603
O         46.77555        30.03306        -1.57203
O         51.26511        33.16233         1.56017
O         48.57702        30.91488         1.25452
O         34.40246        44.48152         0.08082
O         47.03576        34.53408        -1.50724
O         32.14974        40.05813         0.59516
O         36.69698        42.93371        -2.13662
O         31.80845        33.84805        -0.10504
O         48.54797        37.93232        -1.12467
O         37.81536        32.18828         2.37858
O         32.54855        36.04204        -1.51609
O         41.36885        26.33639        -2.25261
O         47.50588        35.96785         1.84843
H         47.72898        35.07563         2.21671
O         52.13058        38.78850         1.97628
H         52.15721        39.46568         2.68258
O         41.35951        29.01997         2.03115
H         41.99057        29.57238         2.54742
O         36.13688        34.09185         2.60509
H         36.60536        33.39574         3.12834
O         36.49423        34.83115        -0.93755
H         36.43737        35.64776        -1.47895
O         43.83140        29.45382        -1.75802
H         44.48607        30.08661        -2.13665
O         28.39296        34.55505         0.36960
H         28.10094        33.77322        -0.13851
O         45.46360        44.83982        -1.15208
H         46.32716        45.26342        -1.35573
O         52.10513        30.11559         1.07511
H         52.51136        30.78719         1.66103
O         30.54130        37.59091        -1.59132
H         30.51411        36.61366        -1.67673
O         34.94123        41.83429         0.94898
H         34.69271        42.76490         1.16350
O         51.36833        38.84875        -1.51934
H         51.01828        38.17187        -2.13533
O         35.10287        36.45239         2.10812
H         35.38627        35.68765         2.66978
O         43.09236        46.23973        -1.51281
H         43.91985        45.71581        -1.66512
O         40.20359        31.77044        -1.15654
H         40.04889        30.89153        -1.56866
O         38.68626        42.78679         1.80561
H         39.02716        41.99705         2.28686
O         48.13130        28.28353         1.33076
H         49.04328        27.99279         1.53617
O         30.88595        34.75655         3.01332
H         31.39085        35.53403         3.32229
O         50.35308        32.00547        -1.71938
H         50.35512        31.19058        -2.26920
O         52.07056        43.02463        -1.10530
H         51.22701        43.42485        -1.40810
