         344
 CSIRO Nanostructure Databank - Neutral Graphene Oxide Data Set
C          1.21811         1.95221        -0.16670
C          1.13643         3.30905        -0.14376
C          2.44110         1.25233         0.14016
C          2.31608         4.08820         0.39434
C          1.12219         6.32452         0.25980
C          1.11067         7.71234         0.16142
C          2.31582         5.59259         0.14442
C          2.30099         8.44278        -0.05237
C          1.24990        10.64434         0.44500
C          1.24896        12.05693         0.41000
C          2.31061         9.90622        -0.04500
C          2.35108        12.79954        -0.02241
C          1.17940        14.99742         0.23680
C          1.21350        16.39450         0.46094
C          2.31983        14.25068        -0.04331
C          2.40038        17.11560         0.42856
C          2.51099        18.46573         0.90491
C          3.64593         1.93328         0.19541
C          3.60866         3.41809        -0.12566
C          4.90742         1.29642         0.34406
C          4.85203         4.16779         0.36981
C          3.51532         6.30416        -0.08356
C          3.50374         7.71005        -0.21246
C          4.79408         5.55035        -0.25673
C          4.78627         8.45674        -0.34270
C          3.47045        10.64081        -0.60656
C          3.55342        12.11360        -0.43740
C          4.75073         9.86480        -0.84508
C          4.77164        12.80100        -0.55775
C          3.56255        14.95334        -0.38122
C          3.60727        16.47965        -0.11143
C          4.83806        14.22204        -0.39436
C          4.91666        17.08115         0.14240
C          3.71853        19.10442         0.95041
C          4.95378        18.43539         0.60543
C          6.12736         1.98501         0.22906
C          6.13896         3.42997         0.06520
C          7.37454         1.29795         0.31347
C          7.31805         4.11256        -0.12015
C          6.08030         6.24982        -0.51391
C          6.08501         7.73468        -0.45011
C          7.36520         5.55078        -0.28284
C          7.33266         8.43516        -0.87607
C          6.05514        10.59789        -1.00436
C          6.04093        12.11088        -0.88785
C          7.34035         9.90313        -0.78255
C          7.32441        12.78432        -0.60571
C          6.06498        14.91821        -0.33954
C          6.10013        16.34393        -0.07228
C          7.31608        14.19420        -0.40587
C          7.36016        17.01474         0.06480
C          6.17966        19.09162         0.70605
C          7.39201        18.41713         0.39960
C          8.59708         1.95283         0.15646
C          8.61287         3.37955        -0.33975
C          9.83757         1.29247         0.26805
C          9.80249         4.18648         0.12948
C          8.56130         6.23867        -0.31733
C          8.62323         7.67412        -0.67994
C          9.80480         5.55506         0.00759
C          9.84030         8.45490        -0.39309
C          8.54290        10.59245        -0.67409
C          8.53203        12.04968        -0.60674
C          9.79551         9.86810        -0.48790
C          9.77303        12.75031        -0.49969
C          8.55287        14.88892        -0.31781
C          8.57530        16.31261        -0.12065
C          9.77947        14.17092        -0.41265
C          9.82442        17.00824        -0.07768
C          8.62188        19.09406         0.45897
C          9.84077        18.42624         0.20164
C         11.05314         2.00725         0.33865
C         10.98200         3.46770         0.71660
C         12.29575         1.38722         0.26090
C         12.26342         4.23875         0.55214
C         11.01993         6.34450         0.22037
C         11.02530         7.76117        -0.00807
C         12.21225         5.66228         0.53997
C         12.27801         8.49032         0.07677
C         11.02338        10.60614        -0.36880
C         11.01157        12.03410        -0.45863
C         12.25905         9.92459        -0.19818
C         12.23885        12.75648        -0.49924
C         11.02498        14.88283        -0.45321
C         11.03778        16.32074        -0.30067
C         12.22600        14.17599        -0.59484
C         12.28531        17.02643        -0.26112
C         11.06859        19.11280         0.25123
C         12.29258        18.44439         0.02909
C         13.51624         2.12048         0.34906
C         13.48407         3.55919         0.48989
C         14.74798         1.45764         0.24053
C         14.72710         4.30976         0.50535
C         13.43596         6.43116         0.94587
C         13.45369         7.84891         0.45289
C         14.71845         5.68352         0.70241
C         14.70243         8.66221         0.72115
C         13.47658        10.65555        -0.24195
C         13.48121        12.04625        -0.41470
C         14.76744         9.86635        -0.22971
C         14.73527        12.80134        -0.44167
C         13.48011        14.91691        -0.98004
C         13.50441        16.35476        -0.48662
C         14.73937        14.15824        -0.65472
C         14.72939        17.06199        -0.40539
C         13.51610        19.14582         0.07119
C         14.74225        18.48451        -0.13582
C         15.97709         2.16104         0.23758
C         15.97395         3.59101         0.34891
C         17.20977         1.44871         0.17978
C         17.20013         4.30800         0.32528
C         15.99677         6.40476         1.01294
C         15.99344         7.86858         0.63879
C         17.23391         5.67950         0.55428
C         17.19682         8.53736         0.54498
C         15.97340        10.71791         0.06325
C         15.96639        12.06377        -0.13329
C         17.19765        10.05255         0.66627
C         17.20507        12.84841         0.11167
C         16.01741        14.92139        -0.90323
C         15.97386        16.39458        -0.56425
C         17.21195        14.30419        -0.21936
C         17.18666        17.08952        -0.48237
C         15.97478        19.18439        -0.10836
C         17.20205        18.52113        -0.29295
C         18.44591         2.09928         0.12789
C         18.47544         3.60113        -0.08596
C         19.66848         1.40947         0.14912
C         19.68235         4.21421         0.62021
C         18.47314         6.41600         0.50921
C         18.44639         7.82171         0.54658
C         19.72299         5.70956         0.43914
C         19.74708         8.56494         0.72114
C         18.45721        10.68845         0.11873
C         18.50916        12.16573         0.11432
C         19.73007         9.93434         0.09095
C         19.69488        12.85151         0.02508
C         18.49810        14.97556        -0.45184
C         18.45703        16.40111        -0.60280
C         19.70695        14.27446        -0.27559
C         19.65342        17.11987        -0.68107
C         18.44869        19.20740        -0.28620
C         19.67024        18.53953        -0.50475
C         20.92279         2.08819         0.12103
C         20.95452         3.50323         0.23682
C         22.15767         1.37820         0.00244
C         22.16807         4.21088         0.13376
C         20.94799         6.37613         0.30677
C         20.98808         7.81172         0.29807
C         22.18084         5.64398         0.15967
C         22.17053         8.50618         0.07903
C         21.01881        10.67157         0.09703
C         21.00617        12.15805         0.35249
C         22.18527         9.97369         0.09881
C         22.22804        12.86059        -0.17596
C         20.94092        14.94827        -0.49480
C         20.88012        16.34999        -1.09497
C         22.15579        14.23220        -0.46007
C         22.18043        17.14960        -0.97370
C         20.92804        19.23002        -0.42731
C         22.15501        18.57760        -0.56357
C         23.37567         2.04731        -0.07259
C         23.39617         3.49483        -0.06119
C         24.63227         1.33878        -0.09765
C         24.60253         4.19980        -0.19879
C         23.40038         6.34354        -0.00189
C         23.41459         7.78068        -0.07783
C         24.62116         5.61809        -0.16088
C         24.62145         8.46104        -0.27406
C         23.51796        10.68768         0.20747
C         23.48204        12.15018        -0.23446
C         24.58392         9.93121        -0.60606
C         24.64477        12.77450        -0.64833
C         23.46094        14.96837        -0.37270
C         23.46676        16.41220        -0.80647
C         24.65697        14.24505        -0.98185
C         24.68427        17.10407        -0.32765
C         23.38065        19.20971        -0.22212
C         24.60786        18.52332        -0.06755
C         25.84250         1.99793        -0.20800
C         25.85264         3.45880        -0.59954
C         27.09379         1.31885        -0.12772
C         27.11907         4.18578        -0.23438
C         25.86185         6.33525        -0.25137
C         25.86320         7.75710        -0.28828
C         27.10619         5.62487        -0.21819
C         27.10470         8.47394        -0.33143
C         25.91989        10.61114        -0.51185
C         25.93754        12.05326        -0.94638
C         27.09080         9.92274        -0.42816
C         27.17107        12.82696        -0.51000
C         25.91574        14.95423        -0.48105
C         25.84053        16.36044        -0.15925
C         27.11172        14.26225        -0.40670
C         26.99004        16.97609         0.59630
C         25.78927        19.19219         0.34745
C         26.98700        18.49251         0.57894
C         28.30443         2.01316        -0.14093
C         28.31339         3.46680        -0.13348
C         29.56532         1.32870        -0.07874
C         29.56643         4.15343        -0.02600
C         28.31172         6.34914        -0.16612
C         28.32550         7.76252        -0.26945
C         29.60340         5.64720         0.17075
C         29.60236         8.46800        -0.23210
C         28.38466        10.66028        -0.73718
C         28.36128        12.13897        -0.39191
C         29.57550         9.96920        -0.03578
C         29.61983        12.83584        -0.14218
C         28.40639        15.04087        -0.44715
C         28.33397        16.38645         0.23817
C         29.62763        14.25066        -0.03876
C         29.47679        17.06924         0.50666
C         28.17095        19.14324         0.94208
C         29.41550        18.44948         1.00115
C         30.74857         2.01995        -0.03135
C         30.76594         3.45487        -0.00459
C         32.02386         4.19798         0.00643
C         30.79904         6.30150        -0.52411
C         30.79812         7.79063        -0.20440
C         32.06564         5.53031        -0.20469
C         32.02637         8.51939         0.07701
C         30.89303        10.65626        -0.46158
C         30.84755        12.12603        -0.05346
C         32.07405         9.86838         0.06303
C         32.01911        12.83865         0.22310
C         30.81958        14.95162         0.21526
C         30.82215        16.47280         0.12979
C         32.00708        14.22506         0.38365
C         31.96097        17.14352         0.85484
C         30.58106        19.07204         1.43392
C         31.82990        18.37487         1.41745
O          3.44219        15.93337        -1.45675
O          5.31580         5.65303        -1.62640
O         18.93559        10.07157        -1.13216
O          8.03750         7.90154        -2.03012
O         23.04323        16.82622        -2.13367
O         17.02645        13.87115         1.16514
O          6.05586        11.43983        -2.19789
O         28.45153        10.62868        -2.16348
O          5.64437         8.27973         0.84976
O          3.83893        10.09192        -1.94054
O         19.48817         3.96626         2.04779
H         20.26573         4.32237         2.52605
O         21.14624        12.27788         1.82481
H         20.33879        11.89050         2.23005
O          3.55576         3.53509        -1.56429
H          4.46934         3.54602        -1.92075
O          8.78464         3.25728        -1.79857
H          8.68721         4.15639        -2.18089
O         14.94227         9.29219        -1.55673
H         14.99286        10.02578        -2.20479
O         24.60257        14.37061        -2.41844
H         25.26249        13.73659        -2.79043
O         26.75874        16.60562         2.00259
H         27.45530        17.04469         2.53590
O         13.32644         6.57595         2.47952
H         12.43902         6.96136         2.65526
O         14.59873         9.17181         2.09280
H         14.41415         8.38739         2.66173
O         31.01605        16.76136        -1.30623
H         31.01514        17.73702        -1.40910
O         24.16673        10.01347        -2.00248
H         24.78104        10.63381        -2.47233
O         17.16517        10.34720         2.08820
H         16.28896        10.02693         2.42052
O         30.58777         6.18847        -1.95559
H         31.16737         6.83700        -2.40650
O         28.60020        15.34712        -1.87113
H         29.49184        15.77008        -1.95310
O         20.66298        16.07716        -2.51887
H         21.56596        16.04275        -2.92411
O         19.88153         8.81158         2.16422
H         19.63060         7.99003         2.63698
O         10.72649         3.44216         2.17529
H         10.81524         4.36263         2.50277
O         16.09078         6.43504         2.50660
H         15.16893         6.34528         2.85055
O          4.84949         4.32415         1.80686
H          3.91060         4.38871         2.11825
O         25.83822         3.45300        -2.07721
H         25.03179         2.96859        -2.35620
O         26.07752        11.97626        -2.42216
H         26.97309        11.51835        -2.56204
O         31.02489        10.62287        -1.89783
H         30.10093        10.71382        -2.28783
O         29.36950        10.20436         1.38088
H         29.99070         9.63125         1.87730
O         23.68909        15.05247         1.06819
H         23.66398        14.14435         1.43868
O         29.80745         5.86627         1.60641
H         29.07891         5.41743         2.08432
O         18.65935         3.82320        -1.50890
H         17.89043         3.43995        -1.97979
O         23.90307        10.67233         1.60375
H         23.17352        11.09519         2.10954
O          2.23606         3.94319         1.85248
H          2.13021         2.98600         2.04420
O         13.43944        15.01041        -2.45119
H         14.37414        15.07623        -2.76379
O         16.25558        14.82775        -2.35199
H         17.05850        15.35438        -2.56064
H          0.33657         1.35368        -0.44066
H          0.19146         3.81772        -0.38254
H          2.41783         0.15764         0.24692
H          0.17699         5.79591         0.44716
H          0.15313         8.24123         0.26092
H          0.36880        10.13847         0.86311
H          0.34994        12.57517         0.76850
H          0.21914        14.48629         0.39234
H          0.28996        16.89603         0.78519
H          1.59683        18.98461         1.22898
H          4.92958         0.20594         0.49798
H          3.77751        20.14546         1.29981
H          7.36765         0.22724         0.57115
H          6.21471        20.14426         1.02309
H          9.85972         0.19181         0.31915
H          8.63755        20.16450         0.71200
H         12.34801         0.30558         0.06141
H         11.07536        20.19153         0.46702
H         14.76139         0.36192         0.14306
H         13.51011        20.22772         0.27095
H         17.18130         0.34881         0.22933
H         15.96654        20.27204         0.05865
H         19.66275         0.30829         0.16967
H         18.45434        20.29530        -0.12050
H         22.13904         0.27852        -0.02601
H         20.91857        20.29342        -0.14301
H         24.61728         0.24595         0.03576
H         23.35048        20.28096         0.03257
H         27.09830         0.22480        -0.00473
H         25.77935        20.28835         0.45443
H         29.56659         0.22882        -0.08364
H         28.16381        20.22985         1.12126
H         31.70502         1.47737        -0.00532
H         32.95597         3.62783         0.14286
H         33.04136         6.03272        -0.28707
H         32.92298         7.94631         0.35640
H         33.02352        10.37514         0.28913
H         32.98416        12.31760         0.28544
H         32.95758        14.74031         0.57682
H         32.95517        16.67624         0.82295
H         30.54348        20.10343         1.81173
H         32.70764        18.86652         1.86261
