         317
 CSIRO Nanostructure Databank - Neutral Graphene Oxide Data Set
C         30.69447        31.36822        -0.72299
C         30.84459        32.58536        -0.91113
C         30.84709        35.78382        -1.36472
C         30.79482        36.97624        -1.71098
C         30.64575        40.37007        -1.65188
C         30.53847        41.59814        -1.61021
C         32.67454        28.72979         0.82781
C         31.62491        29.25365         0.46547
C         32.71026        31.43327         0.64234
C         31.29850        30.71483         0.51395
C         32.67942        32.93781         0.52544
C         31.70665        33.61254        -0.41095
C         32.61367        35.90717         0.31583
C         31.68089        34.96480        -0.54741
C         32.77301        37.24798        -0.40491
C         31.53787        38.05615        -0.89972
C         32.88836        40.35515        -0.94124
C         31.78311        39.39636        -1.66163
C         32.90546        41.85244        -1.21276
C         31.65119        42.61116        -1.75688
C         32.61639        44.48627        -0.48219
C         31.64045        43.87776        -0.94673
C         35.43197        27.42856         0.07829
C         35.21076        28.62992         0.70241
C         33.98626        29.27704         1.26528
C         35.19399        31.57941         0.72224
C         33.88388        30.79449         0.88171
C         35.11839        32.96871         1.41317
C         33.87672        33.74348         0.93314
C         35.17716        35.79446         0.38179
C         33.97285        35.17186         0.50077
C         35.17580        37.30867         0.29219
C         34.03346        37.66504        -0.61589
C         35.38231        40.38540        -0.62116
C         34.28384        39.82505        -1.16619
C         35.37725        41.90165        -0.56010
C         33.97283        42.50634        -0.39233
C         35.15914        44.74787         0.19113
C         33.88173        43.96571         0.04698
C         35.36294        46.00484         0.93603
C         37.64370        27.48279        -0.61026
C         36.46875        26.68115        -0.19013
C         37.66680        28.78454         0.15942
C         36.54136        29.28539         1.07062
C         37.68341        31.51311         1.03564
C         36.49592        30.82457         1.03527
C         37.71473        32.99196         1.17575
C         36.43445        33.76146         1.19126
C         37.72129        35.90553         0.74202
C         36.49017        35.05431         0.36091
C         37.70999        37.41367         0.62115
C         36.52110        38.01954        -0.13870
C         37.87173        40.30911        -0.07128
C         36.48375        39.60892         0.09516
C         37.76696        41.82750         0.04686
C         36.43233        42.47766         0.40403
C         37.73661        44.58862         0.82737
C         36.47617        43.99403         0.24336
C         37.73742        45.94158         1.51071
C         36.40798        46.54807         1.31189
C         40.35734        25.07081        -1.64551
C         39.24602        25.60713        -1.51297
C         40.12673        27.15542         0.14695
C         39.02570        27.02435        -1.08150
C         40.25451        28.64827         0.47674
C         38.98077        29.43181         0.47639
C         40.23851        31.64041         0.25272
C         38.86390        30.92110         0.23952
C         40.24836        33.00641         0.93029
C         38.96327        33.72260         0.84074
C         40.24048        35.61692         0.23091
C         38.98126        35.08251         0.71113
C         40.11600        37.78671         0.11929
C         38.97519        38.24722         0.69072
C         40.31949        40.32126         1.16721
C         38.89681        39.72383         1.07987
C         40.58304        41.69129         1.60000
C         38.86334        42.61912        -0.21210
C         40.22906        44.52593         0.69071
C         39.00131        43.95533         0.36066
C         40.23087        46.01571         0.90213
C         39.01713        46.66768         1.53012
C         40.42103        48.62209         1.91470
C         39.31897        47.94398         1.88559
C         42.91487        24.88582        -1.20176
C         41.60284        25.42613        -1.00768
C         42.63680        27.11841         0.67643
C         41.49505        26.55918        -0.17555
C         42.74529        28.67017         0.62339
C         41.57067        29.35727         0.43440
C         42.58203        31.65804         0.12901
C         41.46619        30.84178         0.74908
C         42.77958        32.97769         0.48006
C         41.59151        33.75424         0.96801
C         42.69590        35.90322        -0.17277
C         41.50233        35.17154         0.49732
C         42.77359        37.46515         0.14300
C         41.49657        38.26953         0.35883
C         43.36356        40.45864         1.11414
C         41.41068        39.49101         1.17411
C         43.18486        41.95427         1.02220
C         41.70345        42.47803         1.09161
C         42.71065        44.62517         0.36484
C         41.51765        43.82967         0.70622
C         42.79712        45.96821         0.63249
C         41.55630        46.76162         0.88930
C         42.99172        48.60374         1.46111
C         41.63455        48.15909         1.49671
C         43.85249        25.44299        -0.52135
C         45.19198        26.86074         1.21088
C         44.01155        26.41687         0.40491
C         45.10195        28.39333         1.24562
C         44.07256        29.23949         0.96048
C         45.41207        31.46030         0.46663
C         44.48558        30.71213         1.19225
C         45.38731        32.99786         0.52018
C         44.01009        33.67936        -0.05204
C         45.25633        35.92791        -0.31745
C         44.00868        35.21869         0.30137
C         45.35353        37.42211         0.01877
C         44.12616        38.10887         0.64572
C         45.23155        40.23991        -0.48606
C         44.14302        39.64087         0.38141
C         45.24081        41.77380        -0.44107
C         43.86627        42.41499        -0.27009
C         45.02130        44.70473        -0.81266
C         43.84784        43.93146        -0.32156
C         44.92592        46.30764        -0.67931
C         44.22929        46.59994         0.65489
C         43.98948        48.03906         0.99565
C         47.50628        27.26083         0.16266
C         46.53859        26.62240         0.57430
C         47.83567        28.61330        -0.24814
C         46.91258        29.45898         0.30823
C         47.90784        31.63139        -0.05713
C         46.60924        30.83226        -0.22586
C         47.89312        32.97897        -0.06714
C         46.56526        33.68642        -0.27562
C         47.78855        35.91241        -0.54713
C         46.59311        35.21529         0.09736
C         47.75809        37.40474        -0.69241
C         46.51066        38.10839        -0.21299
C         47.74790        40.29261        -0.56448
C         46.54340        39.62382         0.03206
C         47.70966        41.75991        -0.96762
C         46.36163        42.47126        -0.73576
C         47.53309        44.67441        -0.16652
C         46.37653        43.98652        -1.01820
C         47.42321        46.13439        -0.58126
C         46.35381        46.73025        -0.69335
C         50.35699        28.82972        -0.71600
C         48.98301        29.25642        -0.98011
C         50.45459        31.51410        -0.05350
C         49.15244        30.80822         0.12520
C         50.43832        33.02171        -0.31236
C         49.15643        33.78463         0.13282
C         50.29155        36.05001         0.05304
C         49.16003        35.20675        -0.54089
C         50.30905        37.46829        -0.29124
C         49.10881        38.14586        -0.90792
C         50.28021        40.42281        -0.76515
C         49.04589        39.60313        -0.30840
C         50.18275        41.77639        -0.04227
C         48.80421        42.48187        -0.07098
C         50.02492        44.52250         0.44941
C         48.88401        44.02645        -0.44355
C         51.46182        29.40094        -0.58404
C         52.76955        31.70216        -0.36770
C         51.62960        30.81423        -0.30378
C         52.83014        32.94996        -0.34325
C         51.69677        33.72868         0.33408
C         52.76037        36.14616        -0.06006
C         51.63484        35.25616         0.24625
C         52.71664        37.37131        -0.23592
C         51.54635        38.28623         0.12758
C         52.55565        40.61510        -0.17408
C         51.58026        39.68415        -0.40583
C         52.71668        41.89981        -0.10721
C         51.46910        42.51441         0.40881
C         51.10911        43.92102         0.51922
O         40.06056        36.66088        -0.69144
O         37.29982        28.77178        -1.24411
O         39.55000        29.00603         1.74837
O         40.95023        33.30286         2.18538
O         43.98688        44.31110        -1.75292
O         36.02173        44.64199        -0.97614
O         33.66085        42.90698         1.00545
O         47.50892        36.51919        -1.84798
O         37.43115        36.76423         1.90353
O         46.31144        29.03729         1.51568
O         37.68225        44.71565         2.30890
O         37.20868        33.67322         2.41119
O         50.88234        35.75466         1.38384
O         50.68964        41.68922         1.33421
O         42.44142        39.87751         2.01616
O         42.26507        38.31206        -0.92248
O         34.33431        38.52457        -1.67409
O         40.68032        46.72481        -0.30404
O         32.73219        33.56776         1.84890
O         49.10998        30.23921         1.42884
H         49.92707        29.71132         1.56194
O         51.58405        38.37270         1.55635
H         51.49476        37.45117         1.90524
O         50.52117        33.08172        -1.74177
H         51.36566        32.66113        -2.01559
O         39.59394        26.46454         1.27318
H         39.30414        27.13498         1.93739
O         49.14511        39.36781         1.12976
H         49.80633        39.99167         1.51714
O         36.79041        37.66814        -1.50345
H         36.15399        38.14840        -2.08296
O         49.29502        38.27896        -2.33727
H         49.16952        37.37336        -2.71086
O         46.38573        30.72738        -1.67057
H         46.30641        31.66599        -1.98991
O         48.27565        42.37512         1.25267
H         49.03668        42.41040         1.87921
O         45.55694        33.36395         1.89561
H         44.93953        32.80381         2.42424
O         39.92326        42.08082        -0.89364
H         40.60838        42.75897        -1.07548
O         45.11751        26.32512         2.52942
H         45.89456        26.64352         3.03397
O         46.43177        33.56640        -1.71115
H         45.71015        34.18827        -2.00693
O         38.42268        39.98025         2.40848
H         37.45608        39.75535         2.46215
O         43.98182        33.49895        -1.49287
H         43.34823        34.17171        -1.85352
O         45.05185        39.83824        -1.85386
H         44.19043        40.20506        -2.15240
O         50.27850        40.67252        -2.17930
H         50.17393        39.79787        -2.63346
O         49.25373        44.18153        -1.78830
H         49.00774        45.08844        -2.07445
O         43.97359        35.38189         1.71277
H         44.84964        35.10326         2.08011
O         42.32233        26.85276         2.06033
H         42.02781        25.92077         2.14340
O         49.52633        35.17362        -1.93101
H         48.86827        34.63089        -2.41592
O         35.31174        31.85189        -0.69789
H         35.53249        31.01805        -1.16734
O         46.76028        35.43451         1.50795
H         47.53834        34.90351         1.81689
O         36.87353        28.91979         2.42351
H         36.05376        29.01769         2.96358
O         32.15125        39.11372        -2.99063
H         32.04105        39.91922        -3.53602
O         30.77070        38.36313         0.23643
H         30.80317        37.60089         0.86031
O         43.98999        31.26113         2.33330
H         43.10570        30.88785         2.59241
O         38.36225        31.03270        -1.11707
H         38.29067        31.98504        -1.34459
O         36.08661        42.25216         1.78110
H         36.45765        42.98256         2.32432
O         43.03401        41.93746        -1.36130
H         43.27313        42.49856        -2.13801
O         34.94670        32.72702         2.80976
H         35.79727        32.94762         3.26060
O         31.82280        42.90070        -3.12845
H         31.03962        43.39275        -3.45012
O         43.14773        31.07121        -0.95938
H         43.65794        31.77827        -1.44252
O         46.66381        44.18817        -2.40716
H         47.26369        43.45958        -2.71440
O         51.71827        33.37770         1.70359
H         52.26162        34.02699         2.19588
O         45.06421        35.83917        -1.74448
H         45.78229        36.36701        -2.17601
O         47.98510        41.91375        -2.36922
H         48.90207        41.57565        -2.55808
O         44.13852        46.83097        -1.71004
H         44.47118        46.49817        -2.56866
O         34.79378        37.71394         1.63048
H         35.48652        37.36799         2.24173
O         39.65176        42.29746         2.31125
H         38.95480        41.61685         2.55739
O         41.45576        30.87838         2.19731
H         40.75005        30.25000         2.49315
O         46.53008        39.83556         1.47781
H         47.46966        39.73186         1.77803
O         38.37956        39.91728        -1.33922
H         39.08499        40.54602        -1.60983
O         49.16678        34.01675         1.56290
H         49.34294        33.16284         2.01422
O         36.09580        39.79144         1.46969
H         35.12773        39.62870         1.56955
O         48.74681        29.57771        -2.29620
H         47.79437        29.83941        -2.39198
O         42.53143        35.76986        -1.58913
H         42.00260        36.54184        -1.90032
O         44.96177        45.96496         1.68467
H         44.61379        46.23911         2.55697
O         30.52800        31.02769         1.63316
H         29.62749        30.66029         1.52467
O         32.69724        40.18097         0.48647
H         31.81840        40.55178         0.72222
O         44.21948        37.93215         2.06240
H         45.05734        38.35685         2.35284
O         39.47806        27.89439        -2.09452
H         38.70448        28.40540        -2.43262
O         36.69972        34.62505        -1.01214
H         36.74358        35.43666        -1.56992
O         31.96613        36.10818         1.57266
H         31.98607        35.24279         2.05439
O         43.88232        42.57802         2.11758
H         43.69843        42.07229         2.93649
O         34.10580        29.24152         2.69699
H         33.32704        29.69363         3.08667
O         35.84035        42.29305        -1.88191
H         35.12288        42.11991        -2.52808
O         47.20125        44.60562         1.19345
H         47.99238        44.84792         1.71999
O         40.52347        32.00024        -1.12923
H         40.55550        31.18080        -1.66879
