         276
 CSIRO Nanostructure Databank - Neutral Graphene Oxide Data Set
C        -11.22717         0.64266         0.53390
C        -10.40327         1.76196         0.09666
C         -8.57888         0.83576        -0.79974
C         -7.50535         1.49970        -0.27427
C         -6.24657         0.75098        -0.20762
C         -5.02655         1.48105         0.31711
C         -3.76674         0.76522        -0.17837
C         -2.54299         1.44541        -0.72984
C         -1.18273         0.71176        -0.74752
C          0.01280         1.60931        -0.34941
C          1.31277         0.81095        -0.48086
C          2.49008         1.43029        -0.74752
C          3.77546         0.67981        -0.79824
C          4.99574         1.39499        -0.30873
C          6.23347         0.64851         0.07628
C          7.45987         1.46913        -0.17035
C          8.62871         0.79985        -0.81968
C          9.95712         1.45361        -0.60823
C         11.19380         0.66023        -0.71665
C        -10.02686         2.91106         0.70556
C         -8.84622         3.71085         0.14861
C         -7.53704         2.88733         0.41902
C         -6.28573         3.72212         0.12325
C         -4.98164         3.00269         0.07761
C         -3.73834         3.69074        -0.44112
C         -2.61753         2.93484        -1.14635
C         -1.27049         3.69765        -1.15699
C          0.03719         2.93045        -1.11938
C          1.33286         3.68873        -1.13580
C          2.66067         2.93843        -0.96788
C          3.58404         3.49506         0.11076
C          4.87363         2.74088         0.33760
C          6.15009         3.46039         0.71308
C          7.52728         2.85252         0.43851
C          8.79835         3.61076         0.09802
C          9.97756         2.79738        -0.36754
C         -8.75102         5.09602         0.80974
C         -7.49506         5.85718         0.39873
C         -6.29565         5.08931         0.06838
C         -5.13304         5.83437        -0.58511
C         -3.80420         5.14308        -0.61009
C         -2.52849         5.86764        -0.53871
C         -1.24916         5.18738        -0.94702
C          0.05994         5.93360        -0.75819
C          1.35798         5.19806        -0.93687
C          2.66782         5.85543        -0.46347
C          3.57148         4.95884         0.37236
C          4.83044         5.59757         0.84995
C          6.00985         4.90866         0.98298
C          7.94263         5.98729         0.32748
C          8.77536         5.06654        -0.24066
C         -7.43600         7.20789         0.56094
C         -6.10595         7.90920         0.66301
C         -5.06432         7.34449        -0.28752
C         -3.78440         8.11530        -0.35842
C         -2.50297         7.34524        -0.29070
C         -1.17228         8.11628        -0.35461
C         -0.00114         7.19587         0.08662
C          1.31665         7.92784         0.18340
C          2.49158         7.22345         0.18824
C          3.70195         7.81942         0.72074
C          4.77733         7.03041         1.02620
C          6.64566         8.11176         0.34458
C          7.68109         7.34655        -0.13892
C         -6.11390         9.42243         0.65277
C         -4.99727        10.15104         0.49411
C         -3.67304         9.59903         0.01299
C         -2.45352         9.92254         0.84410
C         -1.23010         9.34199         0.55183
C          0.01103         9.90992         0.95036
C          1.28066         9.30456         0.68602
C          2.47029         9.98871         0.90342
C          3.82070         9.31496         0.96417
C          4.87783         9.86989        -0.00420
C          6.10096         9.32980        -0.25249
C        -11.02246        -0.66550         0.19315
C         -9.92217        -1.34448        -0.50251
C         -8.67394        -0.64637        -1.07062
C         -7.46425        -1.35960        -0.51059
C         -6.20245        -0.60172        -0.39407
C         -4.91620        -1.38058        -0.54105
C         -3.77140        -0.69426         0.25238
C         -2.45013        -1.37231        -0.01943
C         -1.21251        -0.55013         0.14502
C          0.06382        -1.26932         0.41013
C          1.26666        -0.68424        -0.28440
C          2.51150        -1.50979        -0.39355
C          3.79634        -0.82571        -0.76624
C          5.07748        -1.55262        -0.53205
C          6.31275        -0.81137        -0.11016
C          7.58156        -1.46114        -0.52892
C          8.52360        -0.66499        -1.14110
C         10.40802        -1.51822         0.31150
C         11.38829        -0.63727        -0.36582
C         -9.93116        -2.71378        -0.55313
C         -8.74451        -3.54883        -1.02772
C         -7.47819        -2.84087        -0.54700
C         -6.19345        -3.59120        -0.61578
C         -4.95390        -2.86590        -0.21446
C         -3.80203        -3.53446         0.08465
C         -2.47366        -2.85004         0.11754
C         -1.27114        -3.53156         0.70631
C          0.02651        -2.75707         0.75846
C          1.36106        -3.47268         0.83867
C          2.62611        -2.79806         0.38444
C          3.91492        -3.56367         0.29431
C          5.06345        -2.97678        -0.10915
C          6.36909        -3.69418        -0.11931
C          7.64555        -2.94789        -0.35424
C          8.90140        -3.54689         0.38276
C         10.16184        -2.82293        -0.06452
C         -8.73736        -5.00916        -0.54771
C         -7.60306        -5.73626        -0.38323
C         -6.26948        -5.08198        -0.53444
C         -5.09086        -5.70511         0.19345
C         -3.75492        -5.02886        -0.20735
C         -2.60109        -5.81107         0.47888
C         -1.27945        -5.04412         0.68500
C          0.05462        -5.71636         0.55945
C          1.37574        -5.00838         1.01896
C          2.59677        -5.59507         0.29935
C          3.89872        -4.97581         0.84558
C          5.13839        -5.77865         0.51557
C          6.42783        -5.00233         0.67094
C          7.69115        -5.76844         0.33866
C          8.85802        -5.06431         0.20503
C         -7.64465        -7.24413        -0.07191
C         -6.28134        -7.98211        -0.07190
C         -5.00167        -7.22374         0.03352
C         -3.72745        -7.84807        -0.50254
C         -2.43809        -7.13463        -0.26598
C         -1.10218        -7.87645        -0.34307
C          0.13892        -7.00905        -0.21216
C          1.46658        -7.64740        -0.25168
C          2.60864        -7.09955         0.22104
C          3.81206        -7.89191         0.70453
C          5.11863        -7.13860         0.47460
C          6.37973        -7.88135         0.45353
C          7.58541        -7.21790         0.33867
C         -6.16757        -9.38290        -0.57130
C         -4.98828       -10.01759        -0.71392
C         -3.61940        -9.35994        -0.72002
C         -2.55873        -9.90826         0.29665
C         -1.13892        -9.35253         0.00694
C         -0.07676       -10.15359         0.35850
C          1.34181        -9.83263         0.13395
C          2.54542       -10.12064         0.70148
C          3.82761        -9.37988         0.22437
C          5.12153       -10.00482         0.70726
C          6.28880        -9.32149         0.68595
O         -7.69461        -2.15029         0.72291
O         -4.68436         8.03593        -1.52230
O         -2.54175         6.43499         0.84491
O          2.20248        -2.74228         1.80020
O         -2.26015        -2.20405        -1.21092
O          4.55623        -1.37693        -1.88713
O          5.35849         2.68712         1.69980
O          0.79832         6.01886        -2.00659
O         -1.32265         4.63263        -2.27785
O         -6.05541        -4.43183        -1.82207
O          2.91983         4.02497         1.28899
O         -9.77063         1.48727        -1.15270
O          7.69807         1.59933        -1.62487
O          1.42818        -8.87715        -0.91177
O         -0.47929        -7.24990        -1.52237
O          4.74318         1.26273        -1.72492
O         -3.08750        -7.10915        -1.57981
O          7.06783        -3.76506        -1.41813
O          8.48447         3.16282         1.47715
O          6.19603        -0.21895         1.24681
O         -3.54841        -5.02745        -1.57982
O         -5.53578        -7.89301         1.21380
O         -0.56872        -0.44802         1.44371
O         -0.70951        -5.76840         1.81055
O         -5.15376         1.37965         1.72464
O          5.95819         7.65417         1.48934
O         -3.51016         0.77247        -1.60424
O         -3.96996         3.54595         0.99560
O          7.15793         5.56177         1.42735
O          0.74985         3.11016        -2.36204
O          1.53668        -1.50459        -1.47895
O         -0.78642        -2.97970         1.95833
O          9.36798        -1.11358        -2.09760
H          9.17123        -2.05355        -2.29130
O         -0.93975         0.29850        -2.09580
H         -1.75458        -0.14251        -2.42775
O         -8.73835        -3.60678        -2.47082
H         -7.83684        -3.89556        -2.74479
O         -0.95258         8.55580        -1.69959
H         -1.58940         9.28712        -1.87855
O         -4.67058        -1.38640        -1.96356
H         -3.87311        -1.94129        -2.14002
O         -5.42841         5.69143        -2.02140
H         -5.05134         6.48573        -2.47413
O         -3.98228        -0.87911         1.64959
H         -4.54225        -0.11240         1.98693
O          4.28713         9.57411         2.31282
H          5.10534         9.03832         2.44329
O          3.35157         3.19215        -2.20248
H          2.76595         2.90160        -2.93588
O          3.90828        -4.88764         2.29774
H          3.25013        -4.19409         2.56305
O         -3.39128        10.26526        -1.26740
H         -4.10593         9.98671        -1.88499
O          3.64086        -7.94278         2.14741
H          3.63737        -7.01675         2.48609
O         -0.15419         2.07863         1.00188
H         -0.19683         1.29665         1.60804
O         -3.03105        -6.22586         1.79036
H         -3.05902        -5.44901         2.38842
O         -5.56711         7.53013         1.97635
H         -6.31367         7.45623         2.60804
O          3.43959         6.11485        -1.66595
H          2.80493         6.42795        -2.34995
O          8.74457        -3.24939         1.79270
H          7.96628        -3.75235         2.14993
O         -8.65684        -0.83192        -2.50569
H         -9.43230        -0.36245        -2.87765
O          6.52472        -4.66432         2.09215
H          5.60778        -4.64961         2.47596
O         -8.73502         4.97396         2.23575
H         -8.19284         4.17319         2.45625
O         -7.51536         2.59565         1.83680
H         -6.64732         2.11025         2.02262
O         -2.93051        -9.59088         1.63667
H         -3.17025        -8.64138         1.71229
O         -3.07731        -9.61968        -2.03003
H         -2.82416        -8.75530        -2.43387
O         -3.07598         2.95893        -2.51307
H         -2.39373         2.54710        -3.08378
O         -8.96846         3.97697        -1.25218
H         -9.26616         3.14753        -1.69476
O         -8.51972        -7.88710        -1.00165
H         -8.33021        -7.55156        -1.90166
O          9.76908        -0.91157         1.33818
H          9.19500        -1.58728         1.78884
O         -0.22531         6.73538         1.43958
H         -0.28688         7.51396         2.03231
O          2.46034        -5.13114        -1.07405
H          3.14806        -5.55876        -1.62753
O          3.93915        -9.41534        -1.20997
H          3.04689        -9.23967        -1.59169
O         -5.36321        -5.38818         1.57675
H         -5.55977        -6.24091         2.03666
O          1.53041        -5.29539         2.40835
H          0.67220        -5.10401         2.85306
H         12.36984        -1.08138        -0.59850
H         12.05999         1.20445        -1.12981
H         10.95627         3.29565        -0.27019
H          9.41598         5.37502        -1.07965
H          8.24250         7.70266        -1.01479
H          6.73468         9.82043        -1.00988
H          4.61279        10.78581        -0.55760
H          2.42542        11.03443         1.24620
H         -0.00263        10.89319         1.44565
H         -2.48589        10.81767         1.48417
H         -5.05151        11.24740         0.58550
H         -7.05170         9.92665         0.93618
H         -8.33713         7.75563         0.87985
H         -9.65055         5.70181         0.52838
H        -10.42163         3.18304         1.69483
H        -12.06620         0.86324         1.21241
H        -11.75979        -1.37497         0.60817
H        -10.80653        -3.25355        -0.15362
H         -9.71076        -5.52023        -0.46268
H         -8.09771        -7.38791         0.94461
H         -7.10724        -9.93776        -0.71518
H         -4.99403       -11.07381        -1.02461
H         -2.51979       -11.02246         0.22046
H         -0.31719       -11.14469         0.77954
H          2.62112       -10.82194         1.54532
H          5.12896       -11.08173         0.93617
H          7.22702        -9.84758         0.92389
H          8.51755        -7.80344         0.29853
H          9.80151        -5.60206         0.01977
H         10.70349        -3.22233        -0.93431
