         424
 CSIRO Nanostructure Databank - Neutral Graphene Oxide Data Set
C          1.05431         3.78901         0.52866
C         -0.13844         4.42718         0.13353
C          1.16355         6.15491        -1.13162
C         -0.12154         5.59683        -0.58708
C          1.16637         7.65594        -1.34652
C          0.02800         8.40791        -1.48195
C          1.21875        10.56544        -1.53673
C          0.04724         9.83231        -1.57790
C          1.25642        12.01288        -1.38835
C          0.01914        12.79299        -1.46932
C          1.32502        14.87712        -1.77522
C          0.01600        14.13110        -1.63378
C          1.28797        16.37054        -1.44312
C          0.08275        17.09211        -1.32576
C          1.29756        19.16782        -0.89231
C          0.09068        18.45590        -1.07347
C          1.31225        20.59672        -0.63538
C          0.11773        21.34694        -0.58092
C          1.33643        23.41747        -0.16258
C          0.13394        22.71908        -0.36303
C          1.34673        24.86922         0.00518
C          0.17914        25.64936        -0.16454
C          1.37911        27.69850         0.39211
C          0.18836        27.01856         0.05782
C          1.37727        29.11688         0.78185
C          0.17576        29.84641         0.91255
C          1.36020        31.81206         1.75144
C          0.17284        31.15111         1.39922
C          1.32490        33.18352         2.43738
C          0.07479        33.98501         2.16002
C          1.28821        36.08255         1.73238
C          0.07221        35.31387         1.92427
C          1.24422        37.48229         1.49936
C          3.50028         3.81448         0.78963
C          2.31543         4.41378         0.30369
C          3.62812         6.35321        -0.48344
C          2.38039         5.66906        -0.37252
C          3.69456         7.63466        -1.07259
C          2.47378         8.29484        -1.53887
C          3.75466        10.54592        -1.29717
C          2.49945         9.84746        -1.63969
C          3.72213        11.97018        -1.13055
C          2.45641        12.68029        -1.19640
C          3.69928        14.90068        -0.91389
C          2.36180        14.17632        -0.88020
C          3.78394        16.30948        -1.49691
C          2.49901        17.06386        -1.28018
C          3.77469        19.14083        -0.72705
C          2.52718        18.45353        -0.97360
C          3.78291        20.53504        -0.45217
C          2.55011        21.26939        -0.43003
C          3.79755        23.33001         0.12217
C          2.56584        22.67807        -0.15891
C          3.76735        24.71918         0.70213
C          2.55553        25.53498         0.30831
C          3.86434        27.62238         0.63636
C          2.57390        26.93574         0.44886
C          3.87762        29.07474         0.97368
C          2.57707        29.76777         1.14434
C          3.86739        31.79432         1.72533
C          2.58339        31.10797         1.61395
C          3.87839        33.26363         1.84670
C          2.60429        33.99813         2.16711
C          3.71023        36.10889         1.38065
C          2.53165        35.41905         1.74753
C          3.65992        37.52628         1.15772
C          2.40245        38.19476         1.26894
C          5.93949         3.81588         1.11614
C          4.75946         4.43812         0.63314
C          6.09195         6.39830        -0.07450
C          4.83133         5.72601         0.01301
C          6.17592         7.70231        -0.63598
C          5.00578         8.31616        -1.37073
C          6.18135        10.53299        -1.04027
C          4.95263         9.83073        -1.19096
C          6.18120        11.95784        -1.00024
C          4.94393        12.65606        -0.98407
C          6.23519        14.82831        -1.34485
C          4.96602        14.13389        -0.88448
C          6.22542        16.30741        -1.01542
C          5.02910        17.02022        -1.02042
C          6.23817        19.07725        -0.43561
C          5.01394        18.41510        -0.72575
C          6.24600        20.49080        -0.17355
C          5.01860        21.21463        -0.19711
C          6.27185        23.29661         0.31392
C          5.02257        22.61972         0.09329
C          6.29508        24.72405         0.52239
C          5.08073        25.45134         0.59672
C          6.32330        27.51985         0.99864
C          5.10204        26.83129         0.81350
C          6.39216        28.88163         1.66642
C          5.02577        29.63210         1.80340
C          6.27923        31.83462         1.23231
C          5.07116        31.12918         1.56779
C          6.20640        33.25897         0.99814
C          5.01790        33.98507         1.26517
C          6.03936        36.11327         0.58146
C          4.94510        35.40599         1.11405
C          6.04620        37.55377         0.51595
C          4.83476        38.23202         0.83315
C          8.36169         3.85973         1.56512
C          7.18769         4.46402         1.05155
C          8.50744         6.46622         0.45538
C          7.26180         5.78291         0.47247
C          8.56659         7.79251        -0.06273
C          7.38685         8.41468        -0.56987
C          8.62695        10.54399        -0.76560
C          7.41761         9.82989        -0.86490
C          8.62881        11.96995        -0.82107
C          7.43138        12.65884        -0.90650
C          8.70087        14.85584        -0.99594
C          7.41990        14.14626        -0.66645
C          8.71171        16.23730        -0.88345
C          7.45998        16.96539        -0.77673
C          8.72527        19.00268        -0.26977
C          7.47238        18.35196        -0.48930
C          8.75462        20.40461         0.28134
C          7.46861        21.16906         0.07039
C          8.77105        23.26404         0.28228
C          7.49370        22.56677         0.25514
C          8.82898        24.68013         0.79476
C          7.52523        25.42690         0.64254
C          8.84350        27.52145         1.14092
C          7.53385        26.80357         0.88162
C          8.73117        29.01623         0.88597
C          7.55999        29.68858         1.11649
C          8.64324        31.86113         0.54614
C          7.48686        31.14024         0.98456
C          8.55485        33.26676         0.27192
C          7.33975        33.94578         0.48890
C          8.43153        36.12026        -0.36170
C          7.20493        35.35974         0.10754
C          8.41042        37.64307        -0.49683
C          7.19076        38.26609         0.12351
C         10.75878         3.95174         2.13463
C          9.60338         4.53567         1.57444
C         10.90422         6.58030         1.06255
C          9.67872         5.86936         1.02401
C         10.98607         7.88753         0.45363
C          9.80975         8.49611        -0.07185
C         11.10890        10.52510        -0.57092
C          9.86140         9.85467        -0.48474
C         11.17846        11.96171        -0.74604
C          9.89892        12.73572        -0.51095
C         11.21845        14.81815        -0.95707
C          9.94303        14.06510        -1.25884
C         11.20394        16.22310        -0.83524
C          9.95770        16.94820        -0.79056
C         11.22337        19.03351        -0.13359
C          9.93180        18.32335        -0.46311
C         11.12894        20.50285        -0.45748
C          9.96957        21.16968        -0.20141
C         11.17310        23.35935        -0.30986
C          9.93056        22.62294        -0.11118
C         11.17239        24.78292        -0.19180
C         10.00498        25.47816         0.27116
C         11.16514        27.62410         0.04847
C         10.00721        26.85585         0.42450
C         11.16864        29.03392         0.16238
C         10.03471        29.76579         0.84368
C         11.03353        31.89785        -0.00696
C          9.89424        31.19572         0.38544
C         10.98881        33.32997        -0.16140
C          9.74137        34.01041        -0.06191
C         10.91327        36.16093        -0.10707
C          9.71743        35.42272        -0.19798
C         10.87674        37.60316         0.09207
C          9.66178        38.28730         0.02878
C         13.08614         4.14251         2.91503
C         11.97993         4.67472         2.25146
C         13.28988         6.71676         1.71294
C         12.05262         6.01524         1.68989
C         13.40584         8.11791         1.15822
C         12.22120         8.56395         0.34208
C         13.61387        10.42474        -0.63464
C         12.29867         9.81068        -0.30240
C         13.66537        11.88594        -1.10944
C         12.37563        12.63285        -0.85484
C         13.67557        14.76823        -0.86274
C         12.42492        14.08615        -0.89041
C         13.67337        16.19294        -0.85626
C         12.44773        16.92564        -0.76639
C         13.63732        19.06266        -0.88809
C         12.45539        18.34666        -0.66991
C         13.63419        20.51076        -0.92952
C         12.30623        21.22477        -1.04782
C         13.56581        23.39033        -0.84567
C         12.35347        22.68023        -0.65421
C         13.53729        24.80128        -0.84176
C         12.34818        25.50957        -0.52585
C         13.50661        27.69548        -0.70397
C         12.33703        26.95112        -0.43734
C         13.52869        29.09640        -0.52131
C         12.32723        29.77148        -0.15082
C         13.46752        31.91979        -0.44776
C         12.30261        31.21325        -0.17508
C         13.44049        33.39011        -0.74829
C         12.17569        34.07029        -0.31779
C         13.39208        36.19877        -0.02097
C         12.16154        35.47668        -0.16102
C         13.35257        37.60079         0.26539
C         12.10730        38.27137         0.33855
C         15.50812         4.32906         3.64408
C         14.23464         5.02878         3.28850
C         15.70366         6.81286         2.21392
C         14.41864         6.17575         2.32893
C         15.86919         7.97339         1.39897
C         14.74905         8.31750         0.44609
C         16.10047        10.51404        -0.01738
C         14.85878         9.71941        -0.18779
C         16.14819        11.90422        -0.42726
C         14.92737        12.62528        -0.68694
C         16.15730        14.77085        -0.79738
C         14.93525        14.04451        -0.78936
C         16.14183        16.19001        -0.92044
C         14.90430        16.90978        -0.90822
C         16.08385        19.04092        -1.20568
C         14.88203        18.33569        -1.01862
C         16.03941        20.49152        -1.60976
C         14.80036        21.23063        -1.13815
C         16.01159        23.39821        -1.23602
C         14.81125        22.67908        -1.12046
C         16.04448        24.82693        -1.21936
C         14.74706        25.52701        -1.26056
C         16.00767        27.75251        -1.11790
C         14.72918        27.04093        -1.19968
C         15.99411        29.15727        -0.90673
C         14.74651        29.83493        -0.67632
C         15.94400        31.99045        -0.56689
C         14.72261        31.24672        -0.58265
C         15.92608        33.42130        -0.36829
C         14.69574        34.11157        -0.33261
C         15.86648        36.21315         0.13955
C         14.64625        35.50247        -0.07151
C         15.81885        37.63094         0.44187
C         14.57742        38.28674         0.49729
C         17.92440         4.38261         4.09295
C         16.71907         4.97117         3.54565
C         18.09305         6.89916         2.76489
C         16.82928         6.25380         2.86816
C         18.22214         8.12137         2.03535
C         17.08420         8.65234         1.33823
C         18.46926        10.56238         0.54783
C         17.19391         9.92174         0.62579
C         18.57441        11.77625        -0.20704
C         17.40610        12.55455        -0.50697
C         18.62512        14.78866        -1.30507
C         17.49142        14.08500        -0.53764
C         18.58614        16.22282        -1.34784
C         17.36056        16.93015        -1.08759
C         18.54440        19.09582        -1.35983
C         17.32018        18.34942        -1.21758
C         18.52380        20.54930        -1.31407
C         17.32102        21.22151        -1.35207
C         18.49931        23.38982        -0.92391
C         17.30872        22.70881        -1.60258
C         18.51052        24.88307        -1.20043
C         17.24901        25.56668        -1.24652
C         18.44506        27.74397        -1.26711
C         17.24746        27.03498        -1.24359
C         18.48756        29.25236        -1.31119
C         17.19531        29.90723        -0.91639
C         18.41556        32.00630        -0.40223
C         17.18027        31.30065        -0.65482
C         18.40847        33.40929        -0.17051
C         17.15252        34.13644        -0.20132
C         18.34690        36.31580         0.12342
C         17.10101        35.53516         0.02459
C         18.27928        37.69478         0.64656
C         17.02467        38.32355         0.73140
C         19.11636         5.03863         4.04298
C         20.47389         6.98226         3.30594
C         19.24157         6.31386         3.38245
C         20.59559         8.17478         2.59445
C         19.49520         8.74772         1.92763
C         20.90029        10.42830         0.74299
C         19.63383         9.93660         1.09231
C         21.01867        11.43420        -0.22107
C         19.87883        12.08437        -0.68582
C         20.85832        14.94113        -2.35820
C         19.79444        14.19712        -1.79490
C         20.85775        16.31422        -2.27900
C         19.73441        16.97881        -1.73618
C         20.96933        19.16289        -1.68107
C         19.74301        18.41609        -1.59508
C         20.99034        20.52222        -1.54033
C         19.78775        21.28072        -1.35219
C         20.98359        23.45718        -1.34584
C         19.79972        22.68033        -1.24841
C         20.94686        24.83729        -1.33781
C         19.71956        25.56141        -1.28131
C         20.81402        27.69120        -0.52892
C         19.77680        27.06302        -1.43819
C         20.72958        29.00271        -0.16161
C         19.63520        29.84056        -0.52650
C         20.78098        31.92074         0.21389
C         19.61751        31.23905        -0.23238
C         20.78048        33.29455         0.39824
C         19.62209        34.06612         0.18520
C         20.75901        36.25389         0.94517
C         19.67758        35.54582         0.26048
C         20.66864        37.60249         1.20813
C         19.46967        38.33208         1.03637
O          3.58934        33.77900         3.23082
O         14.40613         9.61553        -1.59570
O          7.53454        35.52537        -1.35016
O         19.25342        36.16438        -1.00727
O         14.54234        26.32264        -2.48763
O          4.41335        14.72741         0.34748
O          2.62712         8.99946        -2.82837
O          4.12846        28.67838        -0.40281
O          6.77478        28.43757         2.97539
O         20.04339        12.83760        -1.83918
O         10.45105        29.83932         2.25839
H         10.17954        28.97845         2.66981
O         11.37088        18.95846         1.32642
H         10.53933        19.33180         1.71874
O          6.36661        14.66431        -2.77073
H          5.57654        15.09310        -3.18372
O         17.78883        14.38430         0.88205
H         17.68636        15.35299         1.00451
O          1.30238         5.57920        -2.49340
H          1.34034         4.60439        -2.38871
O          7.25050        14.31533         0.77134
H          8.08076        13.98362         1.19089
O          9.95626        13.72634        -2.67791
H          9.86771        14.55514        -3.19301
O          1.27352        32.89309         3.85866
H          2.20832        32.89580         4.17714
O         12.03513        21.22972        -2.50294
H         12.83349        21.58607        -2.94935
O          8.35200        37.94334        -1.93470
H          7.82685        37.21814        -2.34558
O         13.43642         9.02794         2.30661
H         12.64227         8.85341         2.85370
O          1.85880        14.27949         0.47196
H          2.64467        14.23528         1.06524
O         20.24222        27.32566        -2.80395
H         19.96811        28.25498        -3.01874
O          5.25638         8.09024        -2.80340
H          4.44099         8.39653        -3.27127
O         13.77395        11.86280        -2.56765
H         14.29904        11.05901        -2.79458
O          1.75412        14.72321        -3.15008
H          1.04386        15.06122        -3.73299
O         13.79714         5.68192         4.57284
H         12.94360         6.12751         4.38041
O         13.43194        33.46939        -2.23066
H         13.40037        34.42045        -2.47032
O          3.97030        16.13004        -2.94464
H          3.85255        17.00376        -3.37334
O         18.73941        29.61703        -2.75057
H         17.90128        29.46144        -3.23798
O          3.60300        24.49386         2.15731
H          2.76614        23.99756         2.28402
O          9.13145        27.37143         2.57751
H          8.28783        27.73821         3.01246
O          9.84210        13.06336         0.91640
H          9.90892        12.22405         1.41911
O         15.89795        20.48484        -3.08813
H         16.35625        21.29540        -3.42198
O          9.04545        24.55933         2.24377
H          9.09237        25.48806         2.59792
O          4.56764        29.47075         3.16436
H          5.33620        29.03066         3.63240
O          8.90700        20.25668         1.74481
H          8.88837        21.16041         2.13052
O         18.28234        23.23514         0.51278
H         19.04676        23.63923         0.97398
O         17.42999        22.85490        -3.05616
H         17.28533        23.80104        -3.27658
O         14.84880         7.33460        -0.60575
H         14.57046         7.77786        -1.44198
H          1.01679         2.83712         1.07560
H         -1.10183         3.97882         0.41821
H         -1.07351         6.03700        -0.91415
H         -0.95905         7.92886        -1.42355
H         -0.92482        10.34325        -1.57203
H         -0.94166        12.25997        -1.43642
H         -0.94276        14.65581        -1.75899
H         -0.88408        16.58411        -1.44130
H         -0.87336        18.97694        -1.00666
H         -0.85306        20.85528        -0.72451
H         -0.82453        23.25409        -0.34546
H         -0.76916        25.17198        -0.44496
H         -0.75672        27.56968        -0.03786
H         -0.78666        29.38429         0.65472
H         -0.79277        31.66410         1.50319
H         -0.88756        33.47586         2.31368
H         -0.88511        35.84987         1.83387
H          0.27288        37.99683         1.52531
H          3.44020         2.84384         1.30366
H          2.36306        39.28267         1.11472
H          5.86915         2.81880         1.57517
H          4.79533        39.32729         0.73709
H          8.29796         2.84831         1.99338
H          7.13251        39.36500         0.09669
H         10.69905         2.93648         2.55399
H          9.64469        39.37228         0.21090
H         13.01526         3.14433         3.37298
H         12.09497        39.35228         0.54322
H         15.44529         3.34764         4.13854
H         14.54993        39.36071         0.73489
H         17.84647         3.40477         4.59042
H         16.97194        39.37669         1.04587
H         20.01570         4.59344         4.49368
H         21.35677         6.54796         3.79679
H         21.58042         8.65903         2.55065
H         21.81192         9.95347         1.12756
H         22.00040        11.70102        -0.63269
H         21.71089        14.39659        -2.78378
H         21.71550        16.88152        -2.66112
H         21.92006        18.63068        -1.81785
H         21.95761        21.04097        -1.57707
H         21.95488        22.96126        -1.47992
H         21.88499        25.39507        -1.46028
H         21.71739        27.11701        -0.27762
H         21.54507        29.42942         0.44201
H         21.72126        31.37187         0.35647
H         21.71903        33.78891         0.68418
H         21.64804        35.69827         1.27445
H         21.53044        38.11593         1.65881
H         19.43446        39.38580         1.34789
