         344
 CSIRO Nanostructure Databank - Neutral Graphene Oxide Data Set
C          1.24729         2.01611        -0.46847
C          1.19349         3.41331        -0.41081
C          2.43345         1.33467        -0.22328
C          2.34349         4.16957        -0.09752
C          1.12594         6.35853        -0.19211
C          1.11703         7.75181        -0.22837
C          2.31718         5.63678        -0.02417
C          2.29942         8.51038        -0.11252
C          1.13235        10.66689        -0.54142
C          1.14540        12.06188        -0.66916
C          2.28463         9.94693        -0.21909
C          2.35377        12.79705        -0.62490
C          1.14077        15.06555        -0.74615
C          1.20124        16.42285        -0.71904
C          2.34509        14.24654        -0.96376
C          2.45351        17.14494        -0.70941
C          2.46958        18.56406        -0.55678
C          3.61469         2.05294         0.09328
C          3.54909         3.47368         0.14715
C          4.85733         1.36633         0.27809
C          4.74780         4.22506         0.55050
C          3.53025         6.37984         0.15049
C          3.53944         7.80688         0.08659
C          4.77036         5.68735         0.30678
C          4.78291         8.51643         0.16270
C          3.50320        10.72746         0.20123
C          3.56434        12.13797        -0.34782
C          4.79885         9.96386         0.09827
C          4.82641        12.82739        -0.34870
C          3.68190        14.98400        -0.92742
C          3.67166        16.44065        -0.70730
C          4.89739        14.23055        -0.56964
C          4.89982        17.12048        -0.49471
C          3.65157        19.24258        -0.38331
C          4.90000        18.54495        -0.33135
C          6.06822         2.03065         0.52266
C          6.03031         3.48790         0.80911
C          7.30721         1.36788         0.49563
C          7.33252         4.29132         0.86482
C          5.98096         6.36350         0.21351
C          6.00768         7.78918         0.16541
C          7.23766         5.55101        -0.01146
C          7.27354         8.47898         0.17742
C          5.98856        10.66739         0.11965
C          6.03128        12.10163        -0.06725
C          7.23918         9.94430         0.54937
C          7.27299        12.78722        -0.06954
C          6.12133        14.93454        -0.45249
C          6.13726        16.39714        -0.45703
C          7.31406        14.19098        -0.25121
C          7.33002        17.11742        -0.28121
C          6.11036        19.22987        -0.10565
C          7.33937        18.53815        -0.06490
C          8.55000         2.07826         0.47995
C          8.56017         3.49590         0.46560
C          9.79048         1.39601         0.38854
C          9.75668         4.19570         0.22263
C          8.51942         6.33918         0.08162
C          8.48888         7.78762         0.09416
C          9.71149         5.65135         0.10545
C          9.75548         8.48422         0.11243
C          8.50694        10.68035         0.24821
C          8.51959        12.03439         0.06150
C          9.78777         9.93497         0.53034
C          9.79737        12.75705         0.16208
C          8.61406        14.88116        -0.29434
C          8.62129        16.42761        -0.32190
C          9.81470        14.19036         0.17253
C          9.79839        17.11613         0.19202
C          8.57407        19.22070         0.15307
C          9.79545        18.53027         0.32417
C         10.99853         2.09441         0.29853
C         10.99230         3.49716         0.15500
C         12.28091         1.30463         0.41216
C         12.29630         4.26710         0.19551
C         10.94299         6.36631        -0.29000
C         10.95869         7.83304        -0.11464
C         12.21859         5.62156        -0.50153
C         12.23274         8.52473        -0.02392
C         10.95287        10.63053        -0.15847
C         10.98831        12.07250         0.24438
C         12.25592         9.90477         0.01653
C         12.23977        12.71635         0.76722
C         11.02197        14.88521         0.38959
C         10.96570        16.34622         0.57471
C         12.25366        14.21300         0.57009
C         12.29462        17.10108         0.76382
C         11.05760        19.22263         0.45455
C         12.27767        18.55747         0.51836
C         13.54977         2.08461         0.14664
C         13.51292         3.44503        -0.16035
C         14.77189         1.38216         0.16462
C         14.76895         4.13094        -0.48039
C         13.48729         6.47627        -0.75069
C         13.51528         7.73049         0.14420
C         14.78577         5.67552        -0.65890
C         14.76906         8.51807        -0.16695
C         13.47255        10.66844         0.01385
C         13.49414        12.02868         0.29290
C         14.69744         9.98044        -0.52286
C         14.72337        12.76712         0.33463
C         13.49424        14.90823         0.60143
C         13.52861        16.33143         0.59107
C         14.73796        14.16769         0.51601
C         14.75728        17.03801         0.52339
C         13.54250        19.20591         0.39806
C         14.75058        18.50163         0.44257
C         16.01907         2.06081         0.10804
C         16.03693         3.47994        -0.12710
C         17.24181         1.37543         0.22691
C         17.23894         4.20379        -0.11476
C         16.02527         6.37037        -0.34705
C         16.00290         7.82610        -0.24557
C         17.24918         5.65310        -0.25883
C         17.22851         8.51614        -0.33945
C         15.97097        10.71334        -0.19278
C         15.96656        12.03137         0.17231
C         17.22398         9.99479        -0.61369
C         17.24129        12.70934         0.62269
C         15.99111        14.89936         0.52916
C         15.96754        16.32996         0.56824
C         17.22652        14.21488         0.48224
C         17.22406        17.08613         0.90610
C         15.99471        19.18470         0.31990
C         17.22429        18.52513         0.43875
C         18.47372         2.06795         0.17572
C         18.48102         3.51144         0.07870
C         19.69499         1.36870         0.20821
C         19.70081         4.21854         0.16433
C         18.48579         6.34506        -0.24012
C         18.49644         7.78118        -0.70248
C         19.70958         5.66858         0.02388
C         19.75299         8.55244        -0.34831
C         18.49228        10.69500        -0.21373
C         18.47838        12.02729         0.08659
C         19.73876         9.93725        -0.29791
C         19.73683        12.81977        -0.10685
C         18.47005        14.92952         0.47821
C         18.48829        16.34563         0.57365
C         19.71840        14.23578         0.40496
C         19.69851        17.06197         0.51197
C         18.45402        19.19340         0.31532
C         19.69802        18.50932         0.41448
C         20.93084         2.05520         0.20967
C         20.93384         3.50129         0.26614
C         22.15050         1.35639         0.19383
C         22.16651         4.18748         0.38031
C         20.92237         6.38161         0.13952
C         20.98433         7.80918        -0.06077
C         22.14096         5.66203         0.68958
C         22.18595         8.49097         0.07294
C         20.97395        10.67184        -0.06028
C         20.97209        12.01267         0.18376
C         22.25798         9.93504        -0.32761
C         22.21554        12.72176         0.54574
C         20.91845        14.93636         0.50898
C         20.93947        16.35936         0.50999
C         22.19980        14.21463         0.68389
C         22.17931        17.06443         0.43975
C         20.93023        19.18195         0.32658
C         22.16576        18.48858         0.33699
C         23.39662         2.03877         0.26768
C         23.38822         3.49363         0.36299
C         24.60136         1.34395         0.29129
C         24.63927         4.20027         0.33241
C         23.44361         6.35329         0.38805
C         23.44431         7.84089         0.57947
C         24.63228         5.65210         0.26137
C         24.71100         8.51164         0.10749
C         23.50010        10.65905         0.12607
C         23.50536        12.04420         0.32679
C         24.72240         9.95538         0.09131
C         24.71653        12.77910         0.44184
C         23.47356        14.94087         0.51995
C         23.43185        16.35631         0.41313
C         24.69564        14.23831         0.48028
C         24.65446        17.07505         0.28785
C         23.40842        19.18410         0.19191
C         24.61922        18.51199         0.15539
C         25.87535         2.04004         0.66440
C         25.85945         3.50776         0.31501
C         27.12591         1.32904         0.23336
C         27.08768         4.19365         0.10171
C         25.89000         6.34754         0.09389
C         25.88118         7.77587        -0.01735
C         27.10696         5.62402        -0.00886
C         27.15066         8.47997        -0.28178
C         25.93465        10.69094         0.16583
C         25.94361        12.08209         0.34100
C         27.18080         9.97001        -0.13758
C         27.24642        12.80667         0.62814
C         25.91751        14.97035         0.35086
C         25.88373        16.37136         0.26209
C         27.20250        14.27259         0.25517
C         27.19345        17.12357         0.28164
C         25.86923        19.21266        -0.09389
C         27.06266        18.57270        -0.11989
C         28.27266         1.99909        -0.06490
C         28.29715         3.46152        -0.10646
C         29.53912         1.28970        -0.24445
C         29.50425         4.13907        -0.33365
C         28.37330         6.29089        -0.13528
C         28.43944         7.74556        -0.21118
C         29.55912         5.55022        -0.22623
C         29.62589         8.40939        -0.38168
C         28.50109        10.57494         0.28533
C         28.48874        12.08344         0.13639
C         29.66169         9.92222        -0.51188
C         29.64442        12.74858        -0.11775
C         28.33621        14.93435        -0.11653
C         28.30004        16.40512        -0.50927
C         29.60352        14.21136        -0.37217
C         29.61700        17.13128        -0.26611
C         28.33287        19.31668        -0.46258
C         29.59249        18.53613        -0.15761
C         30.68636         1.93325        -0.53207
C         30.69144         3.39506        -0.90365
C         31.99740         4.09409        -0.63156
C         30.88572         6.27498        -0.05082
C         30.87081         7.63206        -0.78725
C         32.07802         5.39714        -0.34060
C         32.14959         8.42425        -0.62420
C         30.99160        10.54537        -0.10318
C         30.96663        12.05374        -0.03364
C         32.20615         9.74474        -0.39193
C         32.18739        12.87679        -0.16978
C         30.89272        14.98223        -0.44308
C         30.84855        16.44756        -0.16620
C         32.15698        14.21513        -0.29336
C         32.01544        17.16656         0.14043
C         30.77129        19.23669         0.13128
C         31.97169        18.55050         0.30981
O         14.85679         4.77466        -1.81121
O         31.02331        11.19650         1.20328
O          5.16532         3.84012         1.94107
O         30.17796        14.60829        -1.68645
O         11.48522        16.71478         1.91223
O          8.85090        15.63090        -1.53990
O         11.32639         5.75713        -1.62726
O         27.11849         9.37276        -1.47886
O          3.06844        14.56292        -2.19867
O         22.15583        13.34952         1.88631
O         13.43075         6.98864        -2.08788
H         13.51086         6.22486        -2.69965
O         21.96423         5.74618         2.15937
H         22.25413         6.65773         2.42180
O         30.52327         3.42986        -2.36134
H         29.65112         3.03156        -2.56598
O         10.64418        10.58001        -1.58684
H         11.47248        10.73085        -2.08794
O         29.54570        10.24896        -1.92031
H         28.65354         9.92743        -2.21186
O         12.50180         4.61226         1.60850
H         12.42703         3.78628         2.13314
O          9.99042         9.96921         1.96591
H          9.11097         9.81142         2.38478
O         30.73257         7.36525        -2.20418
H         30.56606         8.22552        -2.64822
O         17.23581        10.10064        -2.10430
H         16.30113         9.90030        -2.38852
O         27.98949        16.47110        -1.91993
H         28.66771        15.92133        -2.37723
O         28.61837        10.24438         1.69476
H         29.52357        10.53946         1.97427
O         19.80296        13.03313        -1.58266
H         19.54106        12.18897        -2.01246
O         12.32361         0.75966         1.74335
H         13.19114         0.32192         1.86554
O         25.90318         1.98646         2.15411
H         25.08481         2.42803         2.46924
O         13.58516         7.26361         1.51643
H         13.41786         8.02388         2.11189
O         17.21610        17.17079         2.38399
H         18.04931        17.61353         2.65286
O         18.50440         7.69448        -2.17727
H         18.20136         8.58180        -2.50203
O         30.97008         6.62058         1.36192
H         30.94332         5.78979         1.88076
O         27.38134        12.76349         2.08855
H         27.61690        11.83301         2.32418
O          3.33005        10.91130         1.67869
H          2.45333        11.33385         1.80804
O         28.35116        20.60129         0.17141
H         28.32268        20.46110         1.13990
O         17.30590        12.48883         2.07787
H         17.19079        11.52894         2.24265
O         22.35936         9.91854        -1.80386
H         22.40575        10.84971        -2.10902
O         23.41267         8.06938         2.06530
H         24.29043         7.80372         2.41658
O          7.14157         5.06061        -1.38589
H          7.29457         5.81633        -1.99128
O          7.55603         4.70123         2.23004
H          6.69155         4.60691         2.69809
O         12.21551        12.50726         2.22938
H         11.39713        12.92308         2.57504
O         27.65648        17.12395         1.66917
H         26.90033        17.37564         2.23972
O          7.17262         9.93526         2.04240
H          6.27269         9.62580         2.28881
O         14.55061        10.04515        -2.01682
H         14.35003        10.97909        -2.24288
H          0.33549         1.45278        -0.71198
H          0.23518         3.91188        -0.60773
H          2.46453         0.23702        -0.27317
H          0.17036         5.83043        -0.31092
H          0.15186         8.25792        -0.36358
H          0.18919        10.14280        -0.74892
H          0.20927        12.57266        -0.93092
H          0.17361        14.56493        -0.59381
H          0.27595        17.00514        -0.59336
H          1.51495        19.10987        -0.57142
H          4.87341         0.27571         0.12908
H          3.65153        20.33612        -0.26780
H          7.32438         0.27442         0.37092
H          6.09497        20.31862         0.05058
H          9.80427         0.29789         0.44685
H          8.56305        20.31816         0.22462
H         12.24477         0.44298        -0.32339
H         11.05095        20.31955         0.36483
H         14.76757         0.29017         0.30292
H         13.56656        20.29929         0.27438
H         17.24247         0.28325         0.35677
H         15.98298        20.27007         0.13395
H         19.68848         0.26892         0.22595
H         18.45862        20.27262         0.09765
H         22.14377         0.25691         0.16101
H         20.93643        20.27790         0.22790
H         24.59255         0.24382         0.25599
H         23.39195        20.27858         0.07915
H         27.13742         0.23046         0.30631
H         25.82485        20.29064        -0.31449
H         29.53934         0.20263        -0.06961
H         28.32669        19.51558        -1.57127
H         31.62647         1.37002        -0.63602
H         32.91916         3.50774        -0.77477
H         33.06985         5.84993        -0.18266
H         33.08933         7.88283        -0.81410
H         33.18392        10.24666        -0.32549
H         33.15519        12.36181        -0.08141
H         33.10817        14.76488        -0.34371
H         32.97686        16.64593         0.24447
H         30.73525        20.33194         0.21719
H         32.89162        19.10058         0.55151
