         404
 CSIRO Nanostructure Databank - Neutral Graphene Oxide Data Set
C          1.28152         1.92548        -0.86734
C          1.24972         3.32682        -0.96679
C          2.48571         1.26333        -0.70432
C          2.42703         4.08152        -0.88078
C          1.19540         6.34546        -1.05182
C          1.23572         7.70438        -1.07028
C          2.41750         5.54191        -1.14916
C          2.46591         8.46238        -0.99524
C          1.27581        10.63521        -1.37007
C          1.29121        12.00253        -1.51861
C          2.46176         9.90725        -1.04675
C          2.49897        12.74683        -1.42485
C          1.35066        14.96297        -1.34938
C          1.38928        16.36095        -1.39831
C          2.50052        14.17467        -1.54573
C          2.57352        17.06879        -1.65174
C          2.62717        18.48803        -1.57280
C          3.70023         1.99421        -0.58561
C          3.66713         3.42658        -0.64748
C          4.93239         1.31584        -0.43800
C          4.87513         4.17326        -0.37448
C          3.73382         6.32078        -0.94077
C          3.67430         7.78541        -0.77106
C          4.86544         5.57857        -0.38224
C          4.86604         8.50380        -0.43736
C          3.66312        10.62399        -0.84446
C          3.71006        12.04663        -1.08231
C          4.87272         9.92981        -0.48364
C          4.92236        12.73876        -0.91088
C          3.76712        14.82991        -1.87973
C          3.80916        16.32695        -1.97565
C          5.07948        14.04517        -1.52074
C          5.13635        17.07642        -1.84770
C          3.82076        19.17671        -1.50268
C          5.08497        18.50735        -1.46007
C          6.14394         2.02162        -0.26620
C          6.10421         3.45682        -0.13136
C          7.38704         1.35426        -0.20765
C          7.30474         4.14806         0.11720
C          5.96492         6.34478         0.19882
C          6.03779         7.81513        -0.00311
C          7.27059         5.57020         0.45866
C          7.19750         8.52039         0.33204
C          6.05710        10.63902        -0.16329
C          5.99012        12.14622        -0.02931
C          7.23116         9.95272         0.22397
C          7.33961        12.82693        -0.09908
C          6.36036        14.80149        -1.33736
C          6.40181        16.31868        -1.55229
C          7.43374        14.18459        -0.52269
C          7.53413        17.06561        -0.97241
C          6.24002        19.17502        -1.09115
C          7.49086        18.49747        -0.88337
C          8.60166         2.06495        -0.07527
C          8.56268         3.49287         0.08942
C          9.85297         1.40195        -0.06393
C          9.78002         4.23743         0.21252
C          8.52679         6.32765         0.47163
C          8.39880         7.77369         0.80226
C          9.73474         5.68942         0.37915
C          9.63367         8.52692         1.16134
C          8.41249        10.71228         0.57994
C          8.45142        12.11742         0.43395
C          9.56383        10.02862         1.20196
C          9.69359        12.86561         0.77256
C          8.60038        14.94154        -0.32188
C          8.67802        16.35932        -0.56515
C          9.73396        14.32168         0.37645
C          9.87864        17.10010        -0.23554
C          8.64840        19.20940        -0.54819
C          9.87510        18.53761        -0.28514
C         11.05570         2.11703         0.05831
C         11.00433         3.55035         0.14580
C         12.30233         1.40514         0.15358
C         12.26635         4.30604         0.20552
C         11.01430         6.51100         0.30987
C         10.95964         7.86499         1.00001
C         12.25907         5.72062         0.62860
C         12.11350         8.51598         1.33007
C         10.87504        10.76338         1.43677
C         10.97773        12.15526         0.99517
C         12.13241         9.96469         1.67483
C         12.22187        12.79762         0.92124
C         11.05773        14.95534         0.11542
C         11.07980        16.43232         0.05963
C         12.29710        14.20099         0.43332
C         12.29608        17.12712         0.24349
C         11.07675        19.23970        -0.06018
C         12.29706        18.56657         0.18361
C         13.52193         2.03903         0.36566
C         13.54269         3.52156         0.35604
C         14.76436         1.35222         0.45205
C         14.70263         4.21565         0.96875
C         13.44146         6.36220         0.97369
C         13.39379         7.76738         1.43318
C         14.70663         5.68473         1.00923
C         14.72808         8.51528         1.55075
C         13.46017        10.71117         1.59992
C         13.44594        12.13359         1.19570
C         14.72576         9.97663         1.43345
C         14.70071        12.81800         1.08911
C         13.53651        14.97114         0.65818
C         13.52144        16.42550         0.51072
C         14.68898        14.26505         0.91561
C         14.69241        17.16929         0.71287
C         13.51366        19.27599         0.37077
C         14.71939        18.60118         0.62805
C         16.00089         2.01258         0.60010
C         16.00856         3.45642         0.96501
C         17.23277         1.33744         0.56792
C         17.22495         4.26160         0.78902
C         15.94431         6.36760         1.12668
C         15.97007         7.77846         1.27264
C         17.19156         5.63902         0.89479
C         17.20038         8.52002         1.28893
C         15.93935        10.67461         1.26874
C         15.91844        12.12061         1.19560
C         17.17673         9.94884         1.25970
C         17.21262        12.85937         1.45912
C         15.96839        14.99775         0.81418
C         15.93085        16.46072         1.06793
C         17.25711        14.28515         0.95465
C         17.23415        17.20072         1.17623
C         15.97277        19.29848         0.73215
C         17.20077        18.65371         0.90393
C         18.47367         2.03364         0.58775
C         18.44639         3.51082         0.42852
C         19.70413         1.38307         0.59642
C         19.76115         4.25380         0.42422
C         18.44306         6.43054         0.82864
C         18.42508         7.82396         1.29320
C         19.76215         5.73338         0.66487
C         19.70346         8.53956         1.46541
C         18.44912        10.64535         0.97805
C         18.45641        12.15171         0.97737
C         19.74045         9.97740         1.17091
C         19.73327        12.85858         1.18809
C         18.53110        15.02776         1.16181
C         18.51906        16.47479         1.05465
C         19.70595        14.29848         1.28725
C         19.70220        17.18007         0.83176
C         18.44533        19.32343         0.83595
C         19.68810        18.65225         0.77585
C         20.96728         2.07669         0.61002
C         21.00284         3.50143         0.65289
C         22.18798         1.37189         0.61158
C         22.22838         4.20593         0.75281
C         20.97856         6.25902         1.42759
C         21.01061         7.78341         1.50423
C         22.25441         5.63282         0.91759
C         22.24099         8.52054         1.14184
C         20.94412        10.67841         1.17181
C         20.93241        12.13564         1.17498
C         22.21348         9.93932         1.13673
C         22.18716        12.86782         1.18032
C         20.99374        15.05486         1.52670
C         20.93621        16.40223         0.84985
C         22.22339        14.25096         1.13643
C         22.07659        16.87103         0.26276
C         20.86664        19.46806         0.80112
C         22.11122        19.02545         0.30490
C         23.43081         2.05293         0.57639
C         23.45154         3.48983         0.63957
C         24.65646         1.35496         0.47435
C         24.67655         4.20833         0.55749
C         23.44339         6.35208         0.81756
C         23.44683         7.81097         0.90226
C         24.68016         5.64468         0.59887
C         24.65981         8.52280         0.71832
C         23.44679        10.63515         1.03376
C         23.44520        12.09863         1.23154
C         24.66879         9.94495         0.83256
C         24.74497        12.84645         1.00933
C         23.45565        14.95721         0.82140
C         23.39880        16.32693         0.44774
C         24.68388        14.28482         0.68797
C         24.55947        17.10094         0.18504
C         23.42783        19.39057         0.58628
C         24.57310        18.57004         0.24852
C         25.88369         2.04559         0.37113
C         25.89132         3.48731         0.39314
C         27.10965         1.35151         0.22981
C         27.11311         4.19308         0.23251
C         25.90074         6.35256         0.46909
C         25.90124         7.80455         0.49281
C         27.11822         5.62488         0.27304
C         27.09391         8.50514         0.32456
C         25.92090        10.67722         0.65250
C         25.92653        12.05946         0.62998
C         27.14942         9.95191         0.33754
C         27.15362        12.82667         0.38341
C         25.80778        14.98727         0.20101
C         25.79019        16.39038         0.01727
C         27.01122        14.21258        -0.15532
C         27.02813        17.09007        -0.30633
C         25.81372        19.20392         0.20295
C         27.03779        18.53835        -0.13180
C         28.32836         2.03985         0.05553
C         28.33025         3.48011         0.03800
C         29.55325         1.34637        -0.11430
C         29.54148         4.18254        -0.20962
C         28.35716         6.30571         0.11825
C         28.36699         7.76471         0.27441
C         29.54144         5.61552        -0.20844
C         29.62631         8.49195        -0.09869
C         28.32761        10.62351         0.00924
C         28.42486        12.08421         0.07657
C         29.47686         9.89516        -0.64020
C         29.58024        12.81332        -0.52328
C         28.24593        14.93122        -0.61250
C         28.20343        16.40450        -0.59045
C         29.55225        14.22213        -0.63184
C         29.44715        17.11213        -0.92321
C         28.22628        19.25229        -0.17829
C         29.45565        18.65430        -0.68477
C         30.75767         2.02794        -0.36947
C         30.74682         3.46726        -0.45640
C         31.98423         1.31573        -0.50049
C         31.92576         4.17543        -0.84577
C         30.76356         6.32629        -0.54455
C         30.78700         7.71925        -0.55157
C         31.93878         5.57145        -0.91441
C         32.08061         8.48326        -0.53454
C         30.79789        10.64644        -0.67617
C         30.77882        12.10180        -0.74806
C         31.96539         9.95811        -0.84135
C         31.99617        12.82084        -0.92018
C         30.75232        14.94945        -0.85645
C         30.74424        16.40661        -0.90420
C         31.97049        14.23552        -0.94643
C         31.92404        17.14592        -0.91384
C         30.76323        19.26569        -0.45624
C         31.92429        18.57452        -0.67793
C         33.19060         1.95911        -0.82606
C         33.10896         3.37743        -1.23405
C         34.43015         1.29235        -0.84667
C         34.48175         4.14704        -1.44062
C         33.16088         6.29274        -1.35148
C         33.20699         7.80978        -1.28652
C         34.44469         5.60099        -1.36709
C         34.51032         8.52337        -1.16479
C         33.21574        10.65384        -1.34280
C         33.25099        12.11646        -1.00182
C         34.49874         9.91619        -1.04351
C         34.46781        12.78421        -0.85372
C         33.24714        14.94737        -1.11214
C         33.23310        16.46082        -1.06616
C         34.49305        14.22439        -0.78028
C         34.47092        17.12804        -0.61528
C         33.22572        19.34659        -0.69600
C         34.46015        18.52559        -0.40470
C         35.66390         1.99890        -0.89692
C         35.67686         3.39858        -1.08550
C         36.91571         1.30214        -0.69689
C         36.85209         4.16650        -0.66860
C         35.70050         6.35419        -1.38768
C         35.73080         7.80691        -1.15061
C         36.98892         5.58850        -1.09262
C         36.94976         8.47426        -0.89171
C         35.71620        10.62370        -0.85799
C         35.71420        12.05466        -0.76133
C         36.94381         9.89841        -0.74162
C         36.91902        12.75126        -0.52401
C         35.66334        14.91598        -0.50039
C         35.65606        16.37273        -0.37590
C         36.90786        14.18384        -0.33940
C         36.82523        17.04207         0.02770
C         35.63418        19.18319        -0.05498
C         36.84157        18.46125         0.14188
C         38.11754         1.95768        -0.52376
C         38.13344         3.41982        -0.34912
C         39.39626         1.28796        -0.50826
C         39.40068         4.16276        -0.42545
C         38.19399         6.33211        -0.67874
C         38.18633         7.73626        -0.69999
C         39.40139         5.59048        -0.44562
C         39.40811         8.45099        -0.44711
C         38.16178        10.60580        -0.50227
C         38.14856        12.02580        -0.38856
C         39.39871         9.88105        -0.37129
C         39.36562        12.73746        -0.13734
C         38.09093        14.85598        -0.02606
C         38.03239        16.27141         0.49033
C         39.34120        14.15913         0.02935
C         39.32537        17.03032         0.33520
C         38.06008        19.14483         0.38615
C         39.30194        18.45440         0.39095
C         40.56627         1.98761        -0.43220
C         40.60329         3.43585        -0.40642
C         41.82916         4.14930        -0.34897
C         40.63955         6.28801        -0.33755
C         40.63007         7.73352        -0.30010
C         41.84066         5.52980        -0.28599
C         41.82674         8.47098        -0.10406
C         40.61104        10.58573        -0.14631
C         40.59789        12.02896        -0.02426
C         41.81676         9.84707        -0.02886
C         41.77655        12.76240         0.22904
C         40.55692        14.87316         0.24196
C         40.55143        16.34000         0.30294
C         41.75574        14.14603         0.34602
C         41.75345        17.08446         0.29368
C         40.52884        19.16816         0.41226
C         41.73437        18.48110         0.35799
O         29.31337        18.05908        -2.01940
O         29.31833         8.28995         1.31500
O         12.79227        10.38565         2.89638
O         14.01826         7.96723         2.73227
O          8.77731         7.96662         2.22114
O         36.60686         5.86026        -2.46594
O          9.89541        10.57567         2.51961
O         16.71398        14.54813        -0.38355
O         37.24899         3.93501         0.72280
O         13.18199         4.07693        -0.95193
O         33.35805        15.74966        -2.34909
O          9.47192        13.95188         1.76689
O          4.54132        14.12729        -2.87466
O         20.41565         8.24479         2.76678
O         33.64362         3.62849        -2.53507
O         19.08850         3.91305        -0.83071
O         16.46769        16.81993         2.39021
O         15.23982         3.65141         2.20917
O          4.53168        16.82265        -3.14494
O          6.84064        15.38557        -2.58453
O         24.28602        12.52064         2.36879
O          6.35135         5.91324         1.54467
O         19.25438         6.45787        -0.47426
O         27.31051        14.30801        -1.59319
O         28.16080        12.65609         1.43194
O         18.35211        11.45055        -0.28111
O          3.28993         5.88881        -2.27131
O         21.98659        17.95447        -0.60987
O         11.81071        14.31435        -0.97436
O         32.90003         7.19723        -2.53980
O         33.10016        10.58892        -2.81349
H         32.32854        11.13358        -3.07799
O         29.10915         9.70363        -2.04740
H         29.01482        10.58646        -2.46357
O         37.84769        16.12251         1.95802
H         38.64842        15.67271         2.30379
O         21.11125        15.27434         2.97238
H         21.14977        14.39651         3.40772
O         33.37155        19.93923        -2.00392
H         33.34355        19.21893        -2.66768
O         20.81031         5.73267         2.77344
H         20.58447         6.50306         3.35111
O         17.36174        12.92733         2.90987
H         16.57285        13.36952         3.28883
O          5.52114        12.39319         1.35651
H          6.19557        12.01794         1.96408
O         32.51609         8.42950         0.87298
H         31.73671         8.63604         1.43583
O         11.16021         6.86443        -1.12032
H         11.48930         6.06744        -1.59147
H          0.34528         1.35673        -0.95120
H          0.28803         3.82539        -1.14980
H          2.51567         0.16548        -0.65643
H          0.22664         5.83627        -0.94760
H          0.28248         8.24928        -1.03529
H          0.32963        10.10062        -1.52446
H          0.35904        12.52187        -1.78059
H          0.39685        14.47325        -1.10964
H          0.47009        16.92783        -1.19185
H          1.68031        19.03846        -1.47059
H          4.94708         0.21620        -0.46707
H          3.80779        20.26650        -1.35532
H          7.41318         0.25860        -0.30159
H          6.19324        20.25596        -0.89057
H          9.88092         0.30561        -0.14569
H          8.61777        20.30842        -0.51721
H         12.26933         0.30641         0.10706
H         11.07015        20.33927        -0.09824
H         14.76555         0.26045         0.31211
H         13.50777        20.37425         0.30675
H         17.24211         0.23979         0.48625
H         15.96719        20.38868         0.57948
H         19.72241         0.28306         0.62921
H         18.44275        20.42100         0.74964
H         22.17859         0.27236         0.58263
H         20.77768        20.48168         1.22185
H         24.65202         0.25534         0.44498
H         23.62687        20.34666         1.09418
H         27.10684         0.25128         0.22822
H         25.85522        20.29314         0.35589
H         29.55778         0.24722        -0.06424
H         28.24407        20.30332         0.14715
H         31.98315         0.22563        -0.35156
H         30.80492        20.31996        -0.14198
H         34.45126         0.21690        -0.61796
H         33.16503        20.19869         0.02864
H         36.90449         0.20264        -0.74474
H         35.63783        20.27826         0.04559
H         39.41247         0.18943        -0.56159
H         38.05508        20.24234         0.45767
H         41.52521         1.44920        -0.41467
H         42.77592         3.59071        -0.33017
H         42.80924         6.04261        -0.21678
H         42.78454         7.94617         0.00683
H         42.76919        10.36771         0.13419
H         42.74060        12.24782         0.33066
H         42.70375        14.66778         0.53181
H         42.72318        16.57307         0.23566
H         40.51334        20.26626         0.45769
H         42.68319        19.03543         0.36041
