         404
 CSIRO Nanostructure Databank - Neutral Graphene Oxide Data Set
C          1.21540         3.26444         0.92474
C          0.10640         3.97608         1.27923
C          1.19967         6.15802         0.99098
C          0.06882         5.40429         1.24470
C          1.19017         7.60928         0.90083
C         -0.04869         8.35510         1.02326
C          1.16883        10.48939         1.03098
C         -0.08895         9.71129         1.06549
C          1.24715        11.99203         1.13548
C         -0.01097        12.76396         1.20445
C          1.27709        14.84555         1.25020
C         -0.00186        14.10444         1.21949
C          1.27711        16.37306         1.15351
C          0.02226        17.11590         1.01681
C          1.24941        19.15006         0.45485
C          0.03157        18.43054         0.64753
C          1.23629        20.57137         0.18934
C          0.03097        21.26971        -0.12456
C          1.20210        23.41139        -0.14919
C          0.01615        22.63660        -0.28301
C          1.19451        24.84808        -0.22045
C          0.00090        25.58086        -0.48930
C          1.17980        27.71662        -0.30145
C          0.00483        26.95299        -0.56583
C          1.18121        29.13445        -0.45451
C          0.17543        29.84120        -1.16219
C          1.31588        32.00203        -0.83535
C          0.21934        31.21177        -1.31194
C          1.36092        33.43275        -1.01600
C          0.32881        34.12053        -1.70455
C          1.44605        36.24496        -1.33280
C          0.37210        35.48869        -1.86614
C          1.49488        37.67706        -1.57661
C          3.62082         3.05296         0.13401
C          2.42979         3.92409         0.42516
C          3.70030         6.26413         0.71986
C          2.45404         5.45869         0.60601
C          3.63458         7.66518         0.53688
C          2.36603         8.31155         0.58483
C          3.56187        10.53996         0.03631
C          2.31258         9.78020         0.38002
C          3.65734        12.01066         0.31775
C          2.48191        12.71785         0.73639
C          3.70815        14.86147         0.67872
C          2.51119        14.13373         0.85051
C          3.72782        16.29410         0.63885
C          2.52129        17.03097         0.73176
C          3.72956        19.14624         0.45824
C          2.50162        18.44552         0.53536
C          3.69881        20.62851         0.72406
C          2.43556        21.30814         0.25730
C          3.65644        23.45609         0.15699
C          2.42843        22.71886         0.09226
C          3.64073        24.86949         0.12738
C          2.40011        25.57697        -0.00624
C          3.59682        27.70800         0.32258
C          2.38928        27.00965         0.03186
C          3.56096        29.15819         0.56871
C          2.26105        29.92390         0.13210
C          3.54998        32.07599         0.21627
C          2.37998        31.35391        -0.17422
C          3.54955        33.48041         0.13932
C          2.45324        34.18167        -0.46819
C          3.49809        36.48261         0.07705
C          2.47778        35.59999        -0.63158
C          3.75216        37.77779        -0.66657
C          2.60782        38.40201        -1.29469
C          6.17785         3.05281        -0.01699
C          4.89335         3.42427         0.47939
C          6.15847         6.19110         0.43182
C          4.94963         5.63863         0.89221
C          6.20268         7.71147         0.52214
C          4.85548         8.41807         0.34083
C          6.02769        10.50048        -0.42223
C          4.82550         9.75957         0.01550
C          6.05888        12.02023        -0.37031
C          4.86144        12.68893         0.16268
C          6.18812        14.85247         0.11409
C          5.00879        14.09376         0.68646
C          6.16502        16.26306         0.18434
C          4.97199        16.99895         0.41857
C          6.17814        19.19276         0.27697
C          4.96988        18.44810         0.40766
C          6.15539        20.62777         0.15135
C          4.94073        21.34443         0.28620
C          6.12804        23.47421         0.00699
C          4.91226        22.74588         0.16413
C          6.12608        24.89859         0.11765
C          4.86894        25.60127         0.23555
C          6.06553        27.70351         0.78912
C          4.82196        27.00254         0.41127
C          6.06255        29.22033         1.00053
C          4.79599        29.94517         0.59123
C          6.00413        32.09093         0.65793
C          4.77474        31.34317         0.55006
C          6.03093        33.49930         0.65891
C          4.74481        34.23058         0.59602
C          6.09790        36.38457         0.27297
C          4.78126        35.74021         0.47018
C          6.16868        37.73377        -0.17595
C          4.96739        38.39520        -0.64469
C          8.55709         3.34564        -0.32574
C          7.30089         3.92566        -0.03608
C          8.39184         6.08609        -0.54209
C          7.26973         5.39370         0.03917
C          8.11808         7.43858        -0.96577
C          7.20091         8.28315        -0.43161
C          8.59073        10.54445        -0.64012
C          7.33058         9.76876        -0.40470
C          8.56341        12.03650        -0.63585
C          7.37707        12.72839        -0.37540
C          8.63513        14.86144        -0.37995
C          7.39274        14.15421        -0.19539
C          8.68021        16.27959        -0.28372
C          7.45604        16.98001         0.16409
C          8.77127        19.22466         0.00719
C          7.46619        18.48130         0.30356
C          8.55244        20.62441        -0.52784
C          7.34134        21.35821        -0.13921
C          8.58721        23.50057        -0.35923
C          7.35007        22.76859        -0.18843
C          8.58336        24.91737        -0.18077
C          7.35371        25.59095         0.07872
C          8.62904        27.76701         0.31991
C          7.38043        26.99460         0.51791
C          8.61125        29.16568         0.43829
C          7.30248        29.87410         0.41884
C          8.54343        32.02758         0.86304
C          7.27726        31.36424         0.46262
C          8.50137        33.54198         1.01161
C          7.23725        34.23924         0.73843
C          8.56395        36.32302         0.43307
C          7.29378        35.65435         0.50696
C          8.61079        37.70808         0.07878
C          7.40285        38.38273        -0.24847
C         10.99042         3.41741        -0.45387
C          9.75499         4.08800        -0.47612
C         10.94812         6.25694        -0.82037
C          9.69427         5.52265        -0.67818
C         11.05058         7.69779        -0.97838
C          9.95949         8.51659        -1.33029
C         11.07894        10.57965        -0.85464
C          9.86728         9.87994        -1.00137
C         11.06009        12.02525        -0.80017
C          9.82386        12.72827        -0.69834
C         11.08128        14.86597        -0.80991
C          9.84934        14.15620        -0.64498
C         11.07894        16.30574        -0.80478
C          9.85958        16.98946        -0.55373
C         11.08312        19.21028        -0.92299
C          9.75445        18.45763        -0.91811
C         11.09658        20.62108        -0.84347
C          9.81755        21.37715        -0.82003
C         11.04065        23.52550        -0.57490
C          9.81497        22.82758        -0.57744
C         11.02202        24.94444        -0.47929
C          9.81908        25.64186        -0.24696
C         11.02237        27.83226        -0.12664
C          9.82553        27.08286        -0.02595
C         11.02279        29.21960         0.09612
C          9.81271        29.91264         0.32842
C         11.00425        32.03930         0.75500
C          9.82961        31.34485         0.58962
C         11.00250        33.47032         1.14378
C          9.77281        34.25144         0.92633
C         11.07394        36.31599         0.57506
C          9.80445        35.62079         0.66712
C         11.08108        37.71204         0.21867
C          9.85494        38.37609        -0.01243
C         13.43088         3.45570        -0.23418
C         12.20628         4.13418        -0.43711
C         13.42219         6.27434        -0.43920
C         12.17678         5.56879        -0.58695
C         13.47398         7.70547        -0.53200
C         12.27168         8.41135        -0.76340
C         13.54195        10.52479        -0.93121
C         12.29137         9.83979        -0.85846
C         13.50731        11.96606        -1.26315
C         12.27429        12.72678        -0.96817
C         13.55131        14.84086        -1.18804
C         12.29774        14.13950        -1.01315
C         13.49123        16.30230        -1.38786
C         12.27137        17.04525        -1.07542
C         13.54636        19.20585        -1.04814
C         12.29637        18.47978        -1.04316
C         13.54437        20.63212        -0.91772
C         12.30838        21.35793        -0.83578
C         13.50581        23.52311        -0.69130
C         12.30133        22.80729        -0.71213
C         13.56221        24.96213        -0.60821
C         12.27847        25.68364        -0.72272
C         13.56887        27.85744        -0.26577
C         12.28297        27.18465        -0.55145
C         13.56859        29.23291         0.02488
C         12.28746        29.97212        -0.02904
C         13.57154        32.08685         0.68145
C         12.28589        31.43059         0.34875
C         13.58469        33.47331         0.90316
C         12.31882        34.21436         1.12147
C         13.54320        36.31476         0.62389
C         12.29680        35.64727         0.77888
C         13.54073        37.70065         0.25088
C         12.31733        38.37548         0.06159
C         15.88840         3.45645         0.12106
C         14.63834         4.15379        -0.04721
C         15.80244         6.34329         0.26427
C         14.60580         5.57735        -0.10706
C         15.90053         7.76173        -0.09591
C         14.70972         8.42664        -0.45367
C         16.04492        10.49645        -0.89580
C         14.73048         9.83281        -0.74350
C         16.11186        11.95478        -1.26988
C         14.81638        12.71845        -1.40952
C         16.03468        14.88834        -1.01577
C         14.78047        14.17947        -1.20420
C         16.03244        16.29814        -1.04071
C         14.84513        17.07480        -1.38874
C         16.00048        19.23666        -0.92570
C         14.80103        18.53073        -1.11365
C         16.00613        20.65350        -0.79511
C         14.78104        21.33715        -0.87879
C         16.07016        23.54639        -0.74793
C         14.76821        22.80553        -0.92813
C         16.02284        24.92256        -0.11949
C         14.75290        25.67282        -0.45329
C         16.01167        27.81257        -0.12426
C         14.77930        27.11284        -0.30707
C         15.98540        29.18939         0.18500
C         14.77614        29.91945         0.30297
C         15.98905        32.04182         0.90854
C         14.78284        31.34815         0.63144
C         16.01817        33.45472         0.99263
C         14.80347        34.19018         0.95755
C         16.01045        36.35972         0.83301
C         14.79150        35.64231         0.84878
C         16.00808        37.71563         0.30163
C         14.78446        38.33482         0.01395
C         18.36808         3.44961         0.28898
C         17.09085         4.11608         0.28969
C         18.36657         6.31623         0.40519
C         17.10083         5.57406         0.50431
C         18.36465         7.73189         0.32270
C         17.14989         8.45651         0.00928
C         18.42461        10.57558        -0.08053
C         17.22787         9.82583        -0.31476
C         18.45692        11.99596        -0.24390
C         17.42498        12.72735        -1.09655
C         18.42403        14.88989        -0.31724
C         17.24661        14.18678        -0.72897
C         18.46092        16.31339        -0.35138
C         17.30031        17.01052        -0.90735
C         18.47700        19.22360        -0.38676
C         17.29397        18.52788        -0.93126
C         18.46888        20.63504        -0.39430
C         17.26990        21.36468        -0.61170
C         18.51944        23.49932        -0.32237
C         17.29694        22.77039        -0.52508
C         18.49669        24.95300        -0.43200
C         17.30896        25.67897        -0.37706
C         18.49920        27.82572        -0.27162
C         17.29912        27.11354        -0.27936
C         18.50713        29.27684         0.01487
C         17.24981        29.85091         0.57854
C         18.54119        32.02800         1.18934
C         17.24338        31.27170         1.05900
C         18.48015        33.50375         1.26382
C         17.27490        34.17786         1.15293
C         18.38261        36.30138         1.57591
C         17.23334        35.63772         1.18503
C         18.44118        38.16606         0.41480
C         17.20184        38.37350        -0.18184
C         19.53985         4.14679         0.40291
C         20.79576         6.31031         0.52505
C         19.57565         5.59087         0.44722
C         20.79771         7.69271         0.56250
C         19.59457         8.43769         0.43425
C         20.70940        10.64101         0.79457
C         19.58591         9.88315         0.39080
C         20.68627        12.01929         0.74708
C         19.58093        12.72238         0.19331
C         20.73678        14.92216         0.46740
C         19.59596        14.17851         0.10437
C         20.74690        16.30871         0.46111
C         19.60408        17.04666         0.06017
C         20.66029        19.25202         0.71062
C         19.59732        18.49615         0.07291
C         20.73347        20.60141         0.60491
C         19.80703        21.32301        -0.34390
C         20.96876        23.54482        -0.16775
C         19.73582        22.82133        -0.18853
C         21.01230        24.88283        -0.43452
C         19.77894        25.62703        -0.68652
C         21.02643        27.92100        -0.29371
C         19.77491        27.20579        -0.62415
C         21.04724        29.21107         0.08935
C         19.80857        30.02149         0.13125
C         20.97886        32.28648         0.45666
C         19.84650        31.38458         0.77608
C         20.97236        33.57178         0.85953
C         19.77674        34.18991         1.47641
C         20.87868        36.57424         1.32904
C         19.72932        35.72256         1.68731
C         20.86779        37.67183         0.49460
C         19.74248        38.30932        -0.09873
O         16.27592         6.02754         1.62859
O          4.58816        35.10014         1.78279
O         14.16370        16.70669        -2.62202
O         15.51138        23.40104        -2.07744
O          8.44348        32.61792         2.17943
O          8.90143         7.92984        -2.01442
O         12.25424        31.00572        -1.07452
O          8.16730        10.11908         0.77513
O          1.42433        15.66339         2.45131
O          4.95308         4.39769         1.50426
O         16.26853        10.94155        -2.30932
O         11.69388        33.82744         2.39873
O          1.48798        11.11802         2.32013
O         19.95930        34.79848         2.79250
O         19.80138        26.47273        -1.87558
O          8.91542        20.93256        -1.91917
O          7.21749        30.63772        -0.83082
O          2.24755         4.83202        -0.72363
O         17.59806        17.79038        -2.15514
O          6.80024        27.07276         1.89318
O          7.64858        17.63747         1.50109
O         17.21156        30.15365         2.01562
O         19.44927        31.42534         2.17668
O         19.05056        30.05523        -1.12720
O         18.35930        37.68152         1.74636
O         14.05954        12.29868        -2.58613
O         12.20031        26.58370        -1.88765
O          5.81210        11.28642        -1.63381
O          2.57708        10.19479        -1.00724
O          2.55007        29.58505         1.52464
O          9.44886        19.42696         1.27148
H          9.12833        18.71706         1.87927
O         20.40425        21.13926        -1.68736
H         20.32467        20.18665        -1.91210
O          5.35732        13.93592         2.12240
H          5.30562        14.82431         2.53680
O          9.22286        18.39441        -2.26328
H          9.20181        19.31720        -2.62105
O         15.97198        24.66277         1.32638
H         16.00247        25.52766         1.78791
O          6.16289        29.46190         2.43218
H          6.47824        28.62547         2.85012
O          6.62638         7.99675         1.89334
H          7.22465         8.77947         1.87097
O         18.04266        12.79060        -2.42178
H         17.72626        11.99593        -2.91411
O          3.68435        20.75242         2.20548
H          2.89946        20.26019         2.52919
O          2.84415        36.90048         1.31052
H          3.09628        36.23547         1.99498
H          1.23624         2.17328         1.06145
H         -0.79087         3.44374         1.62657
H         -0.88707         5.89373         1.47632
H         -0.99270         7.79962         1.10913
H         -1.04793        10.22379         1.22590
H         -0.96378        12.21997         1.26580
H         -0.94548        14.65949         1.31023
H         -0.92734        16.62583         1.26721
H         -0.92663        18.96183         0.57321
H         -0.91066        20.71610        -0.23686
H         -0.94077        23.12889        -0.50168
H         -0.94267        25.04690        -0.66249
H         -0.93557        27.47445        -0.79013
H         -0.66766        29.28987        -1.60092
H         -0.60611        31.69820        -1.84713
H         -0.51910        33.56522        -2.12561
H         -0.42985        36.00617        -2.41178
H          0.63589        38.14434        -2.07989
H          3.45849         2.26195        -0.61351
H          2.67986        39.45966        -1.58930
H          6.31617         2.04724        -0.44287
H          5.07699        39.39368        -1.09593
H          8.62951         2.24744        -0.34453
H          7.44715        39.43094        -0.57740
H         11.00779         2.32369        -0.33594
H          9.86862        39.43791        -0.29949
H         13.42502         2.35737        -0.16944
H         12.32664        39.43708        -0.22556
H         15.88293         2.35950         0.03131
H         14.78878        39.35543        -0.39516
H         18.38513         2.35288         0.20653
H         17.11709        38.99836        -1.08322
H         20.49734         3.60598         0.42210
H         21.74473         5.75711         0.57153
H         21.75857         8.22005         0.63650
H         21.59847        10.13526         1.19454
H         21.56112        12.56854         1.11749
H         21.65855        14.40567         0.76484
H         21.66794        16.83239         0.74823
H         21.39416        18.71827         1.33123
H         21.54315        21.15365         1.10373
H         21.90753        22.98708        -0.04311
H         21.98088        25.38727        -0.54969
H         21.97380        27.36949        -0.37287
H         21.99695        29.68963         0.37035
H         21.84877        31.87395        -0.07550
H         21.85298        34.20717         0.68611
H         21.85547        36.22748         1.69719
H         21.85473        38.06197         0.19562
H         19.90243        38.92721        -0.99368
