         630
 CSIRO Nanostructure Databank - Neutral Graphene Oxide Data Set
C         23.06855        27.37267        -1.10528
C         23.04670        28.72870        -1.16874
C         23.07704        31.69814        -0.88974
C         23.06950        33.07477        -0.67161
C         23.05574        35.98203        -0.47726
C         23.04278        37.35988        -0.42641
C         23.01916        40.29102        -0.36696
C         23.01828        41.67096        -0.36491
C         23.01762        44.61397        -0.52757
C         23.03733        45.98263        -0.70419
C         25.58719        24.55299        -1.23623
C         24.35825        25.24088        -1.27519
C         25.54424        27.33795        -0.81045
C         24.29776        26.61575        -1.09915
C         25.53317        28.84867        -0.88161
C         24.29801        29.53165        -1.43502
C         25.51255        31.69049        -0.91234
C         24.27588        30.99274        -1.02200
C         25.50655        33.10485        -0.70150
C         24.26975        33.80796        -0.59993
C         25.49969        35.96484        -0.36086
C         24.27110        35.25301        -0.46675
C         25.48193        37.40620        -0.25195
C         24.24465        38.10659        -0.32257
C         25.44591        40.26624        -0.12449
C         24.22547        39.55012        -0.27083
C         25.41767        41.68928        -0.03491
C         24.21854        42.41344        -0.21140
C         25.43605        44.58754        -0.35900
C         24.21979        43.87763        -0.33391
C         25.48129        45.99347        -0.56685
C         24.26102        46.70252        -0.71919
C         25.47455        48.81748        -0.79502
C         24.28954        48.12599        -0.84267
C         28.17681        23.14427        -1.55998
C         28.07094        24.47273        -1.13891
C         26.82583        25.20490        -1.07310
C         28.01109        27.39966        -0.94989
C         26.83407        26.64056        -0.91453
C         28.00945        28.83020        -1.07878
C         26.81336        29.56045        -1.06204
C         27.97875        31.74181        -0.94498
C         26.77397        30.99469        -1.02158
C         27.96657        33.12998        -0.78798
C         26.74036        33.83546        -0.63949
C         27.99455        35.94974        -0.29758
C         26.73545        35.24896        -0.43092
C         27.97070        37.37900         0.20986
C         26.69730        38.13950        -0.09854
C         27.94698        40.28052         0.06306
C         26.69110        39.53961        -0.04452
C         27.94798        41.65584         0.14875
C         26.67909        42.40700         0.21701
C         27.96161        44.53020        -0.55562
C         26.69536        43.90247        -0.01033
C         27.97171        46.03546        -0.46997
C         26.73496        46.72259        -0.56034
C         27.98288        48.85162        -0.66186
C         26.72821        48.14328        -0.65591
C         28.03483        50.28049        -0.67847
C         30.64237        23.14400        -1.41009
C         29.41314        22.49188        -1.65520
C         30.62613        24.51601        -1.03495
C         29.32107        25.16783        -0.79679
C         30.58314        27.36691        -1.01333
C         29.28851        26.68499        -0.75719
C         30.59760        28.85281        -1.15761
C         29.28268        29.56679        -1.27500
C         30.51704        31.72748        -0.63788
C         29.28046        31.06316        -1.14059
C         30.48571        33.12414        -0.46273
C         29.26023        33.87961        -0.97319
C         30.48785        35.99587        -0.46604
C         29.18584        35.28784        -0.45855
C         30.49142        37.47274        -0.32446
C         29.20825        38.17654        -0.11973
C         30.48926        40.25492         0.34488
C         29.20135        39.53507        -0.01179
C         30.46467        41.69352        -0.10445
C         29.21423        42.43039         0.25118
C         30.50422        44.60597        -0.30875
C         29.22550        43.89889        -0.02325
C         30.47634        45.99910        -0.41529
C         29.20349        46.72373        -0.50253
C         30.50281        48.85873        -0.88297
C         29.20467        48.13396        -0.60838
C         30.47688        50.31787        -0.51299
C         29.23392        50.97199        -0.54451
C         33.23393        20.42098        -1.87091
C         32.00911        21.10235        -1.87673
C         33.12524        23.20113        -1.31229
C         31.92414        22.47559        -1.55488
C         33.09106        24.55623        -0.93415
C         31.82617        25.23049        -0.82762
C         32.99163        27.38495        -0.44306
C         31.82396        26.65631        -0.65013
C         32.96369        28.83802        -0.33418
C         31.78733        29.57291        -0.66097
C         32.84055        31.60166         0.26649
C         31.68410        30.95488        -0.37119
C         32.83047        33.12094         0.41198
C         31.64572        33.84340        -0.07037
C         32.92105        35.94306         0.17062
C         31.72038        35.25075        -0.13430
C         32.95115        37.39852         0.13364
C         31.76893        38.13650        -0.00202
C         32.98966        40.24130        -0.04420
C         31.77812        39.55160        -0.00323
C         33.06281        41.68518        -0.49834
C         31.73157        42.42524        -0.38762
C         32.94054        44.57942        -0.01358
C         31.74033        43.89808        -0.23378
C         32.91126        46.01156         0.00326
C         31.71277        46.71997        -0.31855
C         32.93310        48.84196        -0.21664
C         31.73281        48.13558        -0.40347
C         32.94328        50.29674        -0.19542
C         31.71542        51.01058        -0.30118
C         32.90871        53.11275         0.06081
C         31.73643        52.42951        -0.15408
C         35.78433        18.99071        -1.85597
C         35.70083        20.38141        -1.57209
C         34.44445        21.07715        -1.65606
C         35.62693        23.20008        -0.95705
C         34.45330        22.58246        -1.67206
C         35.55265        24.57903        -0.57792
C         34.29877        25.27966        -0.64496
C         35.42325        27.35201         0.03917
C         34.24862        26.66757        -0.33121
C         35.32308        28.74663         0.59411
C         34.13568        29.52532         0.09688
C         35.34175        31.65017         0.55306
C         34.13857        30.91176         0.28793
C         35.33912        33.06859         0.64125
C         34.12130        33.82402         0.51626
C         35.32179        35.96568         1.01284
C         34.11258        35.22550         0.48624
C         35.38803        37.41574         0.59270
C         34.18451        38.10985         0.28497
C         35.43788        40.25047         0.29037
C         34.21045        39.52832         0.12734
C         35.42273        41.71200         0.32527
C         34.24166        42.42955         0.07803
C         35.36342        44.55030         0.54577
C         34.19851        43.84950         0.19713
C         35.25948        46.02100         0.88757
C         34.10656        46.74158         0.23888
C         35.45530        48.83150        -0.06900
C         34.13383        48.12201         0.07508
C         35.40099        50.31074         0.21355
C         34.16474        51.00618         0.05868
C         35.38514        53.15148         0.34258
C         34.15163        52.43225         0.16653
C         35.41730        54.57262         0.38731
C         38.17347        18.97430        -1.38436
C         36.98047        18.31509        -1.78443
C         38.10644        20.36239        -1.05525
C         36.87877        21.07328        -1.17625
C         38.00220        23.14342        -0.33633
C         36.82056        22.48328        -0.82633
C         37.94748        24.53315         0.00543
C         36.70905        25.24854        -0.11749
C         37.81926        27.36698         0.56930
C         36.65524        26.66125         0.17683
C         37.83049        28.79547         0.64312
C         36.61519        29.52007         0.53402
C         37.83420        31.64231         0.71040
C         36.60024        30.92988         0.60005
C         37.83236        33.07439         0.74487
C         36.59628        33.78528         0.72167
C         37.82260        35.90185         0.89555
C         36.61451        35.20467         0.80829
C         37.80316        37.38167         1.23056
C         36.57955        38.11471         0.71757
C         37.85411        40.25888         0.86869
C         36.61799        39.53890         0.56638
C         37.82801        41.71848         0.95621
C         36.61618        42.42169         0.67205
C         37.79187        44.55243         1.09292
C         36.58844        43.84844         0.76943
C         37.74739        46.01826         1.26479
C         36.56271        46.77011         0.80654
C         37.85546        48.86751         0.70976
C         36.61640        48.11778         0.58036
C         37.85256        50.28732         0.57220
C         36.60692        51.00606         0.41260
C         37.84841        53.15628         0.55440
C         36.61275        52.44124         0.44721
C         37.85052        54.58136         0.54883
C         36.60690        55.26043         0.48382
C         40.77665        16.31209        -1.86304
C         39.55578        16.92976        -1.79268
C         40.57997        18.94479        -0.82586
C         39.43087        18.27636        -1.32671
C         40.46706        20.30274        -0.39607
C         39.27755        21.02728        -0.55748
C         40.38872        23.10509         0.26431
C         39.21919        22.42843        -0.19324
C         40.33509        24.50599         0.55249
C         39.11167        25.20013         0.45369
C         40.31643        27.36690         0.90961
C         39.02527        26.59691         1.01917
C         40.30803        28.77683         0.91816
C         39.06665        29.50534         0.80414
C         40.30588        31.64662         0.94005
C         39.06709        30.92430         0.81184
C         40.30761        33.06717         0.94322
C         39.06850        33.78882         0.83851
C         40.31898        35.93252         0.98964
C         39.06508        35.20987         0.88509
C         40.33563        37.34714         1.03867
C         39.05542        38.08330         0.71376
C         40.22262        40.21510         1.59809
C         39.01552        39.54980         1.08189
C         40.21706        41.71314         1.67573
C         38.99631        42.43774         1.26363
C         40.28754        44.58880         1.32404
C         39.01131        43.86685         1.27425
C         40.31198        45.99579         1.21380
C         39.06466        46.76598         1.31707
C         40.30510        48.87989         0.91158
C         39.06505        48.19268         0.96066
C         40.31283        50.29686         0.79755
C         39.07695        51.00545         0.67666
C         40.31788        53.14615         0.71710
C         39.08201        52.43650         0.64544
C         40.32522        54.57497         0.68585
C         39.10214        55.30435         0.60018
C         40.36458        57.39892         0.56520
C         39.15202        56.71734         0.54984
C         43.23776        16.42085        -1.66802
C         41.96331        16.99482        -1.45454
C         43.05764        18.94850        -0.45010
C         41.86448        18.28828        -0.86743
C         42.93772        20.21049         0.31481
C         41.59717        20.92944         0.30989
C         42.77576        23.04399         0.90919
C         41.60226        22.38823         0.50445
C         42.76050        24.48596         1.02046
C         41.54841        25.20553         0.89285
C         42.76149        27.35832         1.13309
C         41.53726        26.64517         0.98631
C         42.76553        28.78892         1.18962
C         41.53769        29.50235         1.05352
C         42.76425        31.64302         1.24938
C         41.53616        30.92969         1.07617
C         42.76722        33.07111         1.24320
C         41.54067        33.78196         1.08210
C         42.78787        35.92100         1.16873
C         41.54665        35.21161         1.08864
C         42.78514        37.34791         1.19287
C         41.55216        38.04081         1.17472
C         42.79770        40.25884         1.41922
C         41.54260        39.48208         1.53977
C         42.79562        41.66236         1.46514
C         41.54688        42.44182         1.65734
C         42.75497        44.57123         1.19583
C         41.53398        43.88748         1.33833
C         42.76160        45.99299         1.03944
C         41.53275        46.71088         1.06625
C         42.76717        48.85391         0.95508
C         41.53665        48.14687         0.98610
C         42.77980        50.29125         0.90602
C         41.55668        51.00622         0.83206
C         42.78949        53.15328         0.83960
C         41.55359        52.43639         0.78706
C         42.79157        54.56260         0.86878
C         41.56969        55.27720         0.75708
C         42.84726        57.40055         0.62696
C         41.57883        56.70396         0.66860
C         44.38561        17.13560        -1.37500
C         45.57401        19.24375        -0.54814
C         44.31540        18.40374        -0.75398
C         45.39467        20.24671         0.57437
C         44.13942        20.97090         0.68998
C         45.18624        23.07803         1.49131
C         44.01916        22.30827         1.11804
C         45.21400        24.49258         1.34184
C         43.98297        25.21102         1.18580
C         45.22026        27.33213         1.38274
C         43.98496        26.62770         1.22860
C         45.22148        28.75565         1.48966
C         43.98794        29.50059         1.38657
C         45.19942        31.66110         1.69002
C         43.98907        30.92616         1.43340
C         45.20493        33.06141         1.67948
C         43.99995        33.78960         1.39467
C         45.26803        35.94857         1.30608
C         44.01911        35.20967         1.29696
C         45.25925        37.38963         1.21780
C         44.02770        38.08870         1.22913
C         45.25389        40.23160         1.23236
C         44.01559        39.52174         1.25984
C         45.22595        41.66192         1.26979
C         44.02534        42.38705         1.34276
C         45.21052        44.56531         1.18353
C         44.02198        43.85081         1.26786
C         45.25722        45.99754         0.95957
C         43.98870        46.72397         0.94082
C         45.30987        48.83928         1.07894
C         43.98671        48.11975         0.94812
C         45.26231        50.30503         0.73523
C         44.02811        51.01150         0.83529
C         45.27192        53.13428         0.64739
C         44.03275        52.42555         0.80142
C         45.30687        54.55525         0.72444
C         44.07206        55.29893         1.19234
C         44.02008        56.75236         0.79558
C         47.83657        18.68656         0.47072
C         46.83079        18.40876        -0.37454
C         47.75789        19.84819         1.38662
C         46.40836        20.42035         1.47133
C         47.64867        23.02913         1.86049
C         46.36870        22.47772         1.99165
C         47.68929        24.42562         1.56513
C         46.45443        25.16647         1.41966
C         47.66793        27.31210         1.45696
C         46.44635        26.60526         1.40854
C         47.65540        28.70245         1.65842
C         46.44364        29.43054         1.70765
C         47.74307        31.63263         2.15234
C         46.42783        30.88681         2.00381
C         47.75879        33.12807         2.00619
C         46.44927        33.84957         1.86138
C         47.75000        35.97059         1.38978
C         46.48396        35.27045         1.44042
C         47.76426        37.39492         1.28127
C         46.50181        38.11168         1.23770
C         47.77452        40.27138         1.46443
C         46.48761        39.51517         1.22998
C         47.74324        41.66785         0.90382
C         46.50391        42.38399         1.28137
C         47.71328        44.54697         0.65260
C         46.50877        43.87391         1.28314
C         47.79122        46.02153         1.03630
C         46.45041        46.66661         0.76669
C         47.70964        48.83140         0.30215
C         46.38832        48.10243         0.30065
C         47.69688        50.22649         0.24261
C         46.45767        50.97217         0.44735
C         47.68956        53.10619         0.14265
C         46.47176        52.40548         0.39058
C         47.68317        54.50668         0.20430
C         46.51646        55.21371         0.51461
C         50.26972        20.19929         1.27275
C         48.96506        20.73118         1.72958
C         50.19928        22.99361         1.82020
C         48.92322        22.23181         2.21379
C         50.17024        24.43072         1.67613
C         48.92738        25.10890         1.51634
C         50.19748        27.25775         1.36355
C         48.91790        26.54327         1.08484
C         50.13103        28.70994         1.17312
C         48.95473        29.40118         1.77439
C         50.26246        31.59494         1.52603
C         49.03210        30.87947         1.95849
C         50.25766        33.06686         1.61992
C         48.94347        33.75486         1.28764
C         50.21514        35.94751         1.22674
C         48.98326        35.26263         1.37588
C         50.22698        37.37213         1.21120
C         49.01196        38.08338         1.21612
C         50.21138        40.25141         1.01292
C         49.05203        39.54111         1.14183
C         50.20350        41.75031         0.94703
C         48.87640        42.32502         0.54777
C         50.19017        44.51373         0.26248
C         49.01652        43.79077         0.87072
C         50.14017        45.94206         0.08316
C         48.96199        46.68599         0.33313
C         50.09804        48.78073        -0.31689
C         48.91968        48.08782         0.10731
C         50.08194        50.20512        -0.42478
C         48.90185        50.93980        -0.09115
C         50.08302        53.01745        -0.56991
C         48.90102        52.35778        -0.16545
C         51.41540        20.89851         1.36685
C         52.68214        23.01373         1.69766
C         51.42220        22.31935         1.66776
C         52.65612        24.46777         1.84226
C         51.39089        25.16394         1.62050
C         52.66321        27.32870         1.25279
C         51.40756        26.59132         1.44905
C         52.64588        28.70773         0.97591
C         51.38576        29.46251         0.97830
C         52.63895        31.60174         0.81897
C         51.41613        30.92346         1.20351
C         52.66529        33.00461         0.74857
C         51.52335        33.78580         1.24671
C         52.57559        35.85792         0.46163
C         51.44565        35.22647         0.94623
C         52.70424        37.32065         0.61117
C         51.52424        38.09163         1.15585
C         52.60758        40.20230         0.15374
C         51.58020        39.62138         1.12707
C         52.55228        41.60754        -0.07491
C         51.39889        42.36959         0.25945
C         52.67056        44.51654        -0.10635
C         51.36651        43.77929         0.06379
C         52.51413        45.91759        -0.66140
C         51.31005        46.62846        -0.42078
C         52.44213        48.73071        -1.09815
C         51.28011        48.04218        -0.61855
C         52.42045        50.14918        -1.24800
C         51.25065        50.89700        -0.86562
C         51.21988        52.31059        -0.91765
C         55.13922        23.07039         1.48204
C         53.93570        22.37753         1.65011
C         55.20112        24.46961         1.30488
C         53.99183        25.24528         1.61288
C         55.06703        27.29946         0.71054
C         53.90933        26.64840         1.18653
C         55.02511        28.69181         0.40277
C         53.82123        29.41103         0.61678
C         54.90627        31.48885        -0.14984
C         53.78332        30.83609         0.42565
C         54.82904        32.89709        -0.37070
C         53.74244        33.66549         0.09565
C         54.79265        35.82382        -0.56534
C         53.71972        35.11951        -0.01806
C         54.82399        37.26458        -0.65613
C         53.78326        38.02747        -0.10587
C         54.82403        40.09626        -0.97523
C         53.71665        39.44634        -0.29798
C         54.82265        41.49484        -1.10494
C         53.70348        42.27317        -0.67139
C         54.84284        44.34312        -1.39037
C         53.73761        43.68040        -0.76908
C         54.88200        45.83188        -1.38620
C         53.63456        46.58624        -1.17683
C         54.74752        48.67041        -2.01427
C         53.61836        47.99044        -1.42834
C         54.67519        50.08269        -2.17299
C         53.56633        50.79667        -1.78215
C         57.64435        24.49529         0.77442
C         56.35826        25.15906         0.84355
C         57.42914        27.22610         0.01211
C         56.29997        26.55843         0.52224
C         57.40762        28.62529        -0.29862
C         56.16471        29.37027        -0.14554
C         57.20535        31.35917        -1.23396
C         56.07112        30.71862        -0.50925
C         57.15273        32.84214        -1.45596
C         55.87595        33.56906        -1.15118
C         57.10995        35.75857        -1.58571
C         55.86428        35.06216        -1.22321
C         57.04803        37.12451        -1.78707
C         55.92265        37.91501        -1.34125
C         57.06983        39.97866        -2.11787
C         55.94116        39.31626        -1.45766
C         57.08515        41.38637        -2.27296
C         56.10779        42.20301        -1.46091
C         56.89561        44.26908        -2.78509
C         55.89648        43.62016        -1.91753
C         57.01801        45.72497        -2.80546
C         56.02920        46.53760        -2.09158
C         56.91658        48.51512        -3.26999
C         55.88726        47.94896        -2.47276
C         58.73654        25.09870         0.25540
C         59.90201        27.24573        -0.35414
C         58.63946        26.43360        -0.41777
C         59.85000        28.58834        -0.55745
C         58.59603        29.28967        -0.64240
C         59.68788        31.59727        -0.91394
C         58.57203        30.65206        -1.30633
C         59.62822        32.93315        -1.13656
C         58.41003        33.64098        -1.47710
C         59.56692        35.84820        -1.73986
C         58.36195        35.02457        -1.64660
C         59.49713        37.13952        -2.12215
C         58.17620        37.72464        -2.57838
C         59.17379        39.85535        -3.35099
C         58.14490        39.22528        -2.64640
C         59.14869        41.23017        -3.55775
C         58.11787        42.00637        -3.00824
C         59.22607        44.21550        -3.79261
C         58.04468        43.45497        -3.35584
C         59.15941        45.55833        -3.98833
C         58.02467        46.34140        -3.54396
C         57.97998        47.76235        -3.73120
O         51.11610        33.57469         2.66812
O         29.33585        30.43395        -2.46503
O         49.41400        43.62577         2.29624
O         52.56264        37.61261         2.07050
O         46.21277        21.21828         2.60540
O         29.29815        25.91599         0.48224
O         56.88726        31.90362        -2.56861
O         50.23301        42.35951         2.34846
O         30.59270        36.83963        -1.69090
O         42.01670        20.12329         1.46644
O         40.81821        42.19156         2.91296
O         47.19695        33.77267         3.16008
O         30.83509        41.96313        -1.49241
O         56.02343        46.33192        -0.61308
O         32.53653        32.24610         1.55542
O         29.24771        43.39276         1.35058
O         50.48792        29.13301        -0.20150
O         40.79903        39.62740         2.80921
O         55.34439        34.24094        -2.35319
O         47.00878        31.20471         3.32164
O         48.40696        19.76647         2.69233
O         25.39964        28.20101         0.40355
O         38.29481        46.47777         2.54892
O         49.28844        29.96026         3.08513
O         56.85346        43.71983        -4.17578
O         46.72963        43.16990         2.52909
O         26.66705        43.38101         1.33763
O         53.45731        25.00547         2.94751
O         30.75957        27.98055        -2.33819
O         30.42467        40.24279         1.75972
O         28.00161        37.23343         1.67515
H         28.21339        38.11330         2.05837
O         34.92548        46.04698         2.32410
H         35.70948        45.72495         2.81991
O         30.62495        48.85315        -2.37045
H         29.84697        49.34020        -2.71865
O         58.44319        26.14609        -1.86154
H         58.42240        27.01323        -2.32234
O         35.75327        48.74540        -1.51768
H         35.00641        49.16738        -1.99448
O         47.82275        40.48760         2.91092
H         48.51999        41.16057         3.09180
O         35.14917        36.02329         2.48131
H         34.95074        35.11419         2.79442
O         48.02811        46.10322         2.46138
H         47.78614        47.00390         2.76396
O         24.49189        29.53157        -2.88750
H         23.78598        30.07993        -3.28944
O         45.74905        20.01411        -1.77906
H         45.76909        19.38326        -2.52895
O         45.95963        48.07449        -1.09841
H         46.72898        47.81092        -1.64557
O         58.84064        30.32801        -2.70558
H         58.28765        30.95373        -3.23750
O         33.36530        41.60575        -1.92959
H         32.50773        41.42284        -2.37976
O         52.05434        40.06885         2.43102
H         52.59037        39.32771         2.80252
O         34.65946        22.94105        -3.10443
H         33.90778        22.55576        -3.60421
O         48.69622        33.41136        -0.12037
H         49.34511        33.89158        -0.67742
O         57.99506        37.27552        -3.96491
H         57.87484        36.30153        -3.94709
O         48.96619        22.16247         3.65931
H         48.43892        21.37333         3.92383
O         45.69883        48.76054         2.48532
H         45.00772        49.20802         3.01751
O         44.16884        55.29570         2.66749
H         43.36662        55.74345         3.01123
O         29.43737        34.01216        -2.42625
H         29.98737        34.81027        -2.59050
O         27.92683        44.20773        -1.98566
H         28.72546        44.59359        -2.40484
O         47.50910        44.49073        -0.78565
H         46.73511        45.05475        -1.00250
O         35.05785        28.55528         2.03983
H         35.82764        28.07410         2.41445
O         56.81408        42.36354        -0.15737
H         56.24182        42.91817         0.41713
O         48.88066        26.50171        -0.40981
H         49.23852        27.35950        -0.73494
O         53.14837        44.73373         1.27579
H         52.90883        43.94140         1.80388
O         37.77654        37.46741         2.67318
H         36.91728        37.08583         2.97043
O         38.94545        38.01578        -0.74598
H         39.75371        38.40861        -1.13616
O         38.81753        26.40451         2.48146
H         39.59562        25.91065         2.81985
H         22.12080        26.81441        -1.05387
H         22.07268        29.23962        -1.17645
H         22.11374        31.17505        -0.96218
H         22.09886        33.57713        -0.57362
H         22.09578        35.45542        -0.55211
H         22.07393        37.87465        -0.46054
H         22.05847        39.77059        -0.47425
H         22.05910        42.19166        -0.48385
H         22.04710        44.10045        -0.51549
H         22.09335        46.53375        -0.82446
H         25.56719        23.46149        -1.35833
H         23.43333        24.67250        -1.45028
H         25.45040        49.91190        -0.88317
H         23.33989        48.66775        -0.96122
H         27.27401        22.57843        -1.82903
H         27.10354        50.86077        -0.70128
H         29.40879        21.43967        -1.96904
H         29.18056        52.06352        -0.43057
H         33.20861        19.32950        -1.99428
H         31.09544        20.51996        -2.05214
H         32.86751        54.20557         0.15291
H         30.80287        53.00204        -0.22576
H         34.88702        18.43940        -2.16579
H         34.48507        55.14900         0.33102
H         36.99386        17.24550        -2.02977
H         36.57632        56.35759         0.50318
H         40.86210        15.29387        -2.26888
H         38.66910        16.38688        -2.14473
H         40.37548        58.49613         0.49479
H         38.22572        57.30166         0.47592
H         43.31049        15.42118        -2.11932
H         42.83453        58.48337         0.42958
H         45.35897        16.68568        -1.61182
H         44.95515        57.32955         0.77685
H         48.71722        18.02936         0.50510
H         46.95804        17.55109        -1.05200
H         48.60772        55.07680         0.04529
H         46.58038        56.30666         0.59746
H         50.30837        19.14109         0.98153
H         50.10942        54.11297        -0.63498
H         52.36041        20.40739         1.10061
H         52.10777        52.87359        -1.23285
H         56.05434        22.47288         1.36910
H         53.98911        21.28061         1.67820
H         55.53279        50.62646        -2.59049
H         53.57429        51.88674        -1.90974
H         57.74036        23.48899         1.20640
H         56.88149        49.58327        -3.52487
H         59.70556        24.57803         0.23938
H         60.86897        26.72287        -0.31377
H         60.78411        29.15902        -0.66063
H         60.65167        31.16334        -0.60985
H         60.53570        33.52902        -0.95941
H         60.54237        35.40132        -1.50161
H         60.41380        37.74114        -2.21109
H         59.98175        39.25256        -3.78726
H         59.93714        41.70039        -4.16014
H         60.16865        43.68410        -3.98560
H         60.03120        46.09952        -4.38485
H         58.77893        48.24482        -4.31188
