         300
 CSIRO Nanostructure Databank - Neutral Graphene Oxide Data Set
C         30.65793        32.17296        -1.87633
C         30.60490        33.36552        -1.51722
C         29.99976        35.95752         0.76740
C         30.43650        37.12357         0.78891
C         30.47911        40.15627         2.17958
C         30.43124        41.29530         2.67363
C         33.04602        29.22596        -2.08184
C         32.13112        30.11089        -2.25637
C         33.08635        32.28157        -2.09576
C         31.85342        31.45594        -2.18444
C         32.97355        33.75702        -1.63595
C         31.64165        34.17660        -0.82458
C         32.86107        36.21589        -0.08848
C         31.68932        35.70369        -0.91034
C         32.81757        37.44206         0.49925
C         31.49625        38.10629         0.73100
C         32.87232        39.96821         2.04420
C         31.52092        39.41648         1.46976
C         32.85863        41.51831         2.29010
C         31.45653        42.28830         2.20552
C         32.80204        44.27170         2.65359
C         31.77083        43.61751         2.83595
C         35.80247        27.48580        -1.53468
C         35.59141        28.78605        -2.09540
C         34.37057        29.44267        -2.43400
C         35.61192        32.50337        -2.05244
C         34.33978        31.79547        -2.40788
C         35.49618        33.73393        -1.20208
C         34.16351        34.26394        -0.83617
C         35.17888        35.86631         0.88641
C         34.07995        35.40641        -0.08621
C         35.34254        37.36092         0.76015
C         34.04040        38.01416         1.15236
C         35.23245        40.20637         1.15989
C         34.07282        39.52284         1.22836
C         35.42863        41.60095         1.75972
C         34.11047        42.33395         2.08364
C         35.31763        44.63753         1.85519
C         33.98597        43.89581         1.80181
C         35.55488        46.06668         1.58729
C         38.22019        27.32102        -1.76922
C         36.92145        26.89544        -1.49686
C         38.15004        28.78126        -2.03177
C         36.85393        29.40511        -2.29055
C         37.98073        32.04474        -1.20303
C         36.90135        31.74682        -1.98838
C         37.96772        33.37072        -0.49291
C         36.70245        34.18744        -0.43987
C         37.81825        35.84323         0.98409
C         36.51972        35.04480         0.82189
C         37.77382        37.32679         1.32260
C         36.51138        38.02266         0.83628
C         37.75053        40.25195         0.57678
C         36.47143        39.50560         0.70756
C         37.83172        41.72349         0.95006
C         36.38365        42.38270         0.80489
C         37.26522        44.68134         0.15822
C         36.44041        43.88719         1.09367
C         37.50792        46.03614         0.15323
C         36.57560        46.60610         1.11082
C         41.08046        24.99241        -2.34226
C         39.98819        25.54674        -2.55672
C         40.74221        27.56300        -1.43371
C         39.48532        26.56879        -1.52551
C         40.25539        28.80193        -0.56146
C         39.32166        29.69674        -1.43007
C         40.48678        31.80809        -0.50930
C         39.25512        31.20325        -1.15172
C         40.38795        33.23294        -0.00595
C         39.04314        33.67979         0.56069
C         40.29043        35.84869         1.27172
C         39.00470        35.18370         0.88107
C         40.34373        37.38132         1.40063
C         39.05563        38.02493         0.89023
C         40.32736        40.27050         0.80828
C         39.05231        39.49043         0.59109
C         40.39323        41.79807         0.60961
C         39.02471        42.33747         0.22253
C         40.09923        44.41160        -0.64745
C         38.96898        43.47345        -0.49549
C         39.85209        45.80375        -1.17625
C         38.57326        46.59660        -0.74073
C         39.84418        48.61442        -1.44359
C         38.91940        48.01981        -0.88644
C         43.05183        24.54144        -0.63718
C         42.23520        25.37608        -1.54651
C         42.54533        27.13273         0.45258
C         41.96952        26.77633        -0.92944
C         42.57212        28.66841         0.66755
C         41.42108        29.52439         0.17481
C         42.73009        31.61741         0.63817
C         41.62249        31.00319         0.08283
C         42.96517        33.09146         0.31880
C         41.66255        33.88303         0.39414
C         42.89485        35.89809         1.30254
C         41.60309        35.12987         1.21800
C         42.89474        37.36970         1.05243
C         41.58202        37.99571         0.61685
C         42.93101        40.30455         0.58867
C         41.61967        39.52365         0.82100
C         42.80245        41.61176        -0.23401
C         41.42787        42.21435        -0.47834
C         42.58378        44.38947        -1.34376
C         41.44369        43.75329        -0.58051
C         42.51606        45.93052        -1.34606
C         41.14677        46.58877        -1.46957
C         42.31562        48.51087        -2.38616
C         40.93282        47.95627        -2.25893
C         43.79946        25.11018         0.17728
C         45.08679        27.13972         0.77637
C         43.91976        26.45960         0.64811
C         45.16963        28.68446         0.72034
C         43.85191        29.34109         1.11795
C         45.11759        31.59315         1.76210
C         43.84701        30.84674         1.28156
C         45.39821        32.92079         1.04627
C         44.15419        33.79046         0.97948
C         45.42000        35.96171         1.50963
C         44.17162        35.14220         1.19304
C         45.40104        37.54488         1.29172
C         44.17240        37.91258         0.41358
C         45.29492        40.17533        -0.26998
C         44.05730        39.41828         0.05475
C         45.30421        41.71069        -0.27112
C         43.92654        42.28496        -0.60489
C         45.18082        44.45601        -1.34290
C         43.91916        43.75636        -0.93326
C         45.11706        45.92625        -1.84028
C         43.80372        46.65541        -1.81203
C         43.37410        47.88123        -2.50084
C         47.56047        27.17562         0.83274
C         46.43479        26.66191         0.79268
C         47.79146        28.66735         0.94193
C         46.38513        29.18075         1.55690
C         47.78674        31.37410         1.74037
C         46.43197        30.70144         1.76617
C         47.88941        32.88424         1.62872
C         46.60095        33.63110         1.67437
C         48.05881        35.62196         1.52690
C         46.67141        35.12484         1.65032
C         47.91307        37.72851         0.87203
C         46.64477        38.12514         0.58768
C         47.86531        40.22824        -0.33015
C         46.60074        39.51981         0.04414
C         47.74577        41.49154        -1.14312
C         46.41738        42.18256        -1.23289
C         47.67751        44.32081        -1.93657
C         46.32310        43.56809        -1.89854
C         47.38014        45.58492        -2.38781
C         46.32771        46.27586        -2.62799
C         50.27281        28.62956         1.62293
C         48.99837        29.15103         1.69469
C         50.26216        31.22812         0.86637
C         49.15033        30.68038         1.80119
C         50.30829        32.72864         0.63379
C         48.96891        33.48994         0.70685
C         50.30906        35.71611         0.30684
C         49.12246        34.98904         0.97586
C         50.40608        37.31737         0.39314
C         49.10383        38.04144         0.06083
C         50.40598        40.11595        -0.72575
C         49.11469        39.41665        -0.54524
C         50.35234        41.59350        -1.03290
C         49.03162        42.26473        -1.33034
C         50.23872        44.32938        -1.40742
C         48.85499        43.80831        -1.15443
C         51.46846        29.11717         1.63605
C         52.68615        31.33253         0.82415
C         51.57623        30.38624         0.87526
C         52.73874        32.56676         0.82481
C         51.64016        33.51006         0.56551
C         52.70963        35.85541         0.18388
C         51.66260        35.01042         0.84784
C         52.71500        37.05040        -0.13040
C         51.56422        37.89745        -0.62557
C         52.69695        40.33472        -0.72122
C         51.58822        39.41605        -0.61354
C         52.77635        41.55470        -0.95389
C         51.61486        42.46338        -0.60446
C         51.33388        43.78587        -1.25942
O         31.21794        36.34257        -1.84425
O         36.97235        39.95900        -0.60865
O         43.59424        29.91157         2.41188
O         50.69055        30.43717        -0.27628
O         31.37003        39.40531         0.03970
O         44.44738        39.64070        -1.33565
O         47.39361        33.37033         2.90320
O         49.89496        41.84182        -2.40393
O         36.47785        44.11827         2.54270
O         42.95073        36.88206         2.40503
O         33.64809        41.94218         3.41325
O         35.71027        33.83727        -2.65345
O         40.93986        44.44424         0.56743
O         40.34048        31.77722        -1.96556
O         40.84410        35.13225         2.45030
O         47.12962        30.97298         3.00412
O         33.01604        34.56004        -2.87238
O         38.72531        45.97452        -2.05429
O         48.19651        36.93435         1.98562
O         40.98218        39.91819         2.06262
O         43.43144        33.20854        -1.15439
O         44.77535        46.82883        -0.76842
O         50.97110        33.06818        -0.64278
O         34.53732        30.64896        -3.20532
O         46.85153        41.24867        -2.27312
O         39.09082        38.48887        -0.48734
O         41.92817        46.65269        -0.24490
O         47.38728        40.36305         1.02058
O         45.94282        35.65822         2.82634
O         36.94433        30.64971        -2.86728
O         44.79565        44.42094         0.03819
O         37.73070        43.93842        -0.94537
O         42.94664        26.55089        -1.99308
O         48.83532        38.22885        -1.35615
O         37.77803        34.54919        -1.34187
O         41.48808        29.05813         1.55588
O         34.64021        35.76516         2.21318
O         33.13126        39.26989         3.25069
O         41.04638        34.15000        -0.91548
O         39.21842        29.39376        -2.80192
O         45.26352        38.16017         2.56370
H         45.68549        37.57054         3.23057
O         43.39194        40.74373         1.88681
H         42.59712        41.08796         2.36691
O         42.96580        32.11607        -1.95002
H         42.16369        32.48846        -2.40180
O         44.35402        37.16523        -0.80262
H         44.38162        37.80236        -1.55649
O         31.74570        33.76572         0.51623
H         31.09758        34.32135         1.03063
O         49.68815        31.04347         3.08688
H         48.96450        30.99118         3.75073
O         51.71803        35.15572         2.25165
H         51.81403        36.11584         2.45180
O         45.28843        29.05146        -0.65998
H         46.20731        28.86791        -0.97263
O         47.91576        29.22679        -0.37000
H         48.85927        29.18701        -0.65316
O         38.27196        41.80514         2.32552
H         37.78096        42.52374         2.78662
O         51.57468        42.63382         0.78378
H         52.34071        43.16796         1.07691
O         45.84895        32.59589        -0.28461
H         45.12695        32.78654        -0.93634
O         44.84654        31.97885         3.10741
H         44.59151        31.17826         3.61562
O         50.13719        35.47188        -1.09487
H         50.39822        34.53926        -1.30106
O         40.86930        42.34556         1.84460
H         40.14663        42.21609         2.50467
O         42.40446        44.03470        -2.73951
H         42.02627        43.12456        -2.79315
O         39.36707        28.33086         0.45970
H         39.91528        27.87645         1.14842
O         40.40729        37.66833         2.80211
H         41.19713        37.19391         3.16530
O         31.22895        42.55450         0.83126
H         30.27559        42.72553         0.67957
O         40.97936        41.75653        -1.78260
H         41.15019        40.79508        -1.87553
O         50.80434        37.70420         1.71198
H         50.03154        37.58629         2.31311
O         41.60697        26.58735         1.39146
H         41.89207        26.82502         2.29905
O         40.42113        47.63760        -3.51938
H         40.16843        48.45469        -3.99485
O         37.67772        37.46183         2.76642
H         38.59761        37.45170         3.13925
O         45.89888        43.36548        -3.25588
H         46.38835        42.58587        -3.60909
O         48.35294        33.29666        -0.59207
H         49.05201        33.19750        -1.27343
O         31.76905        34.37776        -3.58126
H         31.26705        35.20672        -3.33550
O         33.90264        37.60040         2.57441
H         34.73919        37.78307         3.06624
O         36.04277        41.34226         3.02835
H         35.30700        41.24408         3.68365
O         33.58176        44.05480         0.44875
H         32.67960        43.66250         0.33378
O         46.21146        28.58008         2.83727
H         46.72369        29.11120         3.48955
O         41.51431        37.68607        -0.77965
H         40.60862        37.89967        -1.11851
O         41.09021        28.04448        -2.71657
H         41.83093        27.49114        -3.06499
O         36.43341        34.09342         1.91342
H         35.77934        34.48891         2.55451
O         48.53445        43.99349         0.22674
H         48.33216        44.93734         0.39781
O         35.81987        42.17981        -0.48547
H         36.37751        42.62783        -1.16195
O         38.82932        32.88885         1.73512
H         37.99318        33.21090         2.16241
O         45.65226        42.19451         1.02834
H         44.98623        41.84608         1.66978
O         51.31302        37.59746        -1.96847
H         50.99292        36.66568        -2.04301
O         39.36626        25.88108        -0.29902
H         38.49848        25.42697        -0.26311
