         276
 CSIRO Nanostructure Databank - Neutral Graphene Oxide Data Set
C        -11.25822         0.64230        -0.26742
C        -10.12788         1.45242         0.17276
C         -8.86048         0.67922         0.33710
C         -7.57628         1.43840         0.45715
C         -6.17694         0.79931         0.45768
C         -5.09295         1.45985         1.37089
C         -3.78859         0.66490         1.18395
C         -2.55310         1.15497         1.83054
C         -1.31587         0.74052         1.41004
C         -0.07998         1.52172         1.72010
C          1.12248         0.91024         1.03982
C          1.99278         1.79943         0.50232
C          3.90144         0.81381        -0.03093
C          5.00704         1.50621         0.31932
C          6.30445         0.81130         0.31892
C          7.47927         1.60556         0.00206
C          8.79537         0.91973        -0.06854
C         10.06845         1.69581        -0.20624
C         11.24982         0.87211        -0.50230
C        -10.09127         2.80531         0.02728
C         -8.93027         3.69356         0.44175
C         -7.60807         2.92010         0.69800
C         -6.27618         3.62031         0.65635
C         -4.95801         2.94017         0.95290
C         -3.84789         3.73366         1.15367
C         -2.60461         3.32684         1.81545
C         -1.34909         3.87809         1.65504
C         -0.10128         3.09007         1.93520
C          1.27092         3.86091         1.88280
C          2.22986         3.20540         0.86528
C          3.64296         3.76407         0.73418
C          4.92766         2.96409         0.59126
C          6.20906         3.71473         0.30300
C          7.25202         2.92069        -0.39083
C          9.21707         3.94254         0.72343
C         10.22062         3.02430         0.09807
C         -8.69998         4.91069        -0.44411
C         -7.51138         5.54045        -0.57553
C         -6.24588         4.90985        -0.10786
C         -4.95622         5.64756        -0.14642
C         -3.84991         5.16753         0.74056
C         -2.57638         5.95906         0.78969
C         -1.29674         5.32804         1.28336
C         -0.00174         6.07667         1.16362
C          1.26790         5.36542         1.54243
C          2.58123         5.98042         1.18328
C          3.88130         5.16135         1.32792
C          5.09374         5.86485         0.69888
C          6.23657         5.20482         0.35743
C          7.59440         5.90342         0.66982
C          8.82603         5.15405         0.19005
C         -7.40827         6.82992        -1.39666
C         -6.15317         7.67525        -1.15598
C         -4.92886         7.09251        -0.53849
C         -3.54674         7.58198        -0.96632
C         -2.47714         7.29276         0.08074
C         -1.15955         7.99134        -0.07544
C          0.10668         7.31019         0.31810
C          1.30151         7.76399        -0.14409
C          2.61693         7.05615         0.10984
C          3.76804         8.01713         0.39656
C          5.08908         7.34993         0.70452
C          6.34026         8.04717         0.30669
C          7.51242         7.35521         0.23441
C         -5.94549         8.88239        -1.99875
C         -4.74858         9.51725        -2.06937
C         -3.52590         9.00771        -1.46594
C         -2.34093         9.68907        -1.51614
C         -1.08313         9.12595        -1.03790
C          0.12461         9.65652        -1.36465
C          1.41548         8.91454        -1.12814
C          2.62291         9.79702        -0.87191
C          3.75668         9.34126        -0.26652
C          5.02129        10.06562        -0.28377
C          6.21552         9.45526        -0.04943
C        -11.17732        -0.70173        -0.47738
C        -10.02012        -1.51280        -0.12288
C         -8.95032        -0.80144         0.69529
C         -7.56226        -1.47109         0.62287
C         -6.26580        -0.71782         0.65061
C         -5.00722        -1.47525         0.22307
C         -3.74740        -0.76758         0.74124
C         -2.50878        -1.54886         1.11498
C         -1.23065        -0.74573         1.15265
C          0.00068        -1.39073         0.53568
C          1.30448        -0.64745         0.94708
C          2.45251        -1.29954         0.10643
C          3.78065        -0.63227        -0.09936
C          5.06308        -1.32580         0.20840
C          6.32141        -0.55427         0.11280
C          7.48302        -1.29146        -0.49521
C          8.79753        -0.55892        -0.33348
C          9.97302        -1.23672        -1.01071
C         11.24256        -0.46289        -0.73318
C         -9.99476        -2.87164        -0.23911
C         -8.85902        -3.66047         0.39308
C         -7.52966        -2.86756         0.00512
C         -6.31300        -3.68202         0.39002
C         -5.02463        -2.95169         0.57119
C         -3.74417        -3.67426         0.28986
C         -2.52719        -3.08280         0.97965
C         -1.21205        -3.66303         0.49630
C          0.04896        -2.91352         0.81746
C          1.33097        -3.67176         0.65000
C          2.44195        -2.86519        -0.01345
C          3.78310        -3.55696         0.22654
C          5.07217        -2.79983         0.31331
C          6.37619        -3.54015         0.17604
C          7.62962        -2.75165        -0.03596
C          8.87615        -3.46966        -0.45048
C          9.97929        -2.74699        -0.77255
C         -8.63536        -5.06578        -0.09353
C         -7.80978        -6.00304         0.60532
C         -6.20242        -5.09004        -0.10766
C         -5.06248        -5.90693         0.52660
C         -3.75749        -5.15954         0.19490
C         -2.47439        -5.90669         0.46383
C         -1.19105        -5.13527         0.28375
C          0.09344        -5.94628         0.52896
C          1.32888        -5.11160         0.19434
C          2.45055        -5.67498        -0.33436
C          3.77438        -5.00647        -0.10480
C          5.04926        -5.64388        -0.58398
C          6.40146        -4.90431        -0.50535
C          7.58206        -5.74960         0.03901
C          8.92412        -5.01967        -0.39158
C         -7.56864        -7.41984         0.13348
C         -6.36623        -8.04164        -0.03885
C         -5.06233        -7.31468        -0.03289
C         -3.76879        -8.05574        -0.14092
C         -2.47732        -7.39509         0.25267
C         -1.22964        -8.07159        -0.15084
C         -0.02108        -7.22999        -0.30800
C          1.17634        -7.79198        -0.98729
C          2.50182        -7.03083        -1.02383
C          3.68744        -7.84019        -0.45384
C          5.01929        -7.12465        -0.73260
C          6.30939        -7.86307        -0.63224
C          7.48761        -7.20785        -0.41557
C         -6.26124        -9.46032        -0.39568
C         -5.09534       -10.14375        -0.44501
C         -3.75801        -9.57017        -0.01818
C         -2.53854       -10.19740        -0.73468
C         -1.23056        -9.40632        -0.60957
C         -0.04254       -10.01275        -1.02770
C          1.19506        -9.24308        -1.46184
C          2.53599        -9.92262        -1.24596
C          3.69500        -9.27363        -0.94814
C          4.99373        -9.94054        -0.97131
C          6.19149        -9.30265        -0.83040
O         -7.02799         3.46644         1.93256
O          5.89933         3.21942         1.65465
O         -0.06353         2.13269         3.04588
O          3.81366        -4.55476         1.29250
O         -1.19299        -4.23333        -0.85196
O         -2.50478        -6.78903         1.60077
O         -2.11514         8.34519         0.99606
O          0.82120        -3.35118         1.96363
O          0.19814        -6.99949        -1.76760
O          8.98714        -0.09208         1.01597
O          4.94591        -6.25293        -1.90716
O         -1.80857        -1.31566         2.38605
O         -5.28049         4.74332        -1.23892
O         -5.76316        -3.44502         1.71784
O         -8.10627         1.04671        -0.88033
O         -6.83320        -1.23606         1.86816
O          4.29350         7.99448         1.74985
O          2.79947         1.46051        -0.57318
O          1.98635         6.25887         2.46645
O          2.85154        -0.87612        -1.23219
O         -5.79417         7.93794         0.25739
O          7.24803        -3.22026         1.30404
O          0.17029        -6.26982         1.87468
O         -2.70298         2.23466         2.68684
O         -4.37896        -7.45919        -1.33393
O         -9.42732        -0.97909         2.01321
O          2.67887         3.90944        -0.34389
O         -0.80529         6.18456         2.38280
O          4.97877        -1.98703         1.53412
O         -3.58175         6.05669         1.86148
O         -3.41887         0.31104        -0.19137
O         -3.70594        -4.33390        -1.00181
O         -4.95741        -1.48520        -1.22368
H         -4.66320        -0.57661        -1.49180
O          7.84314         3.45536        -1.49401
H          8.50225         2.82821        -1.85506
O          2.10092        -3.13393        -1.41327
H          2.60450        -2.49386        -1.97336
O         -5.66226         1.05527        -0.87180
H         -6.42309         1.00154        -1.49812
O         -9.38644         4.25901         1.70085
H         -8.59138         4.41397         2.26257
O          6.75176        -4.57134        -1.88338
H          6.25772        -5.21104        -2.45765
O          9.32188        -5.49554        -1.67975
H          8.60014        -5.24119        -2.29980
O         -8.98390        -3.61171         1.81697
H         -9.18638        -2.64367         2.08664
O         -3.57680        -9.87684         1.38312
H         -4.21004        -9.35395         1.91821
O          1.89620         3.71672         3.16299
H          1.38691         3.04617         3.67799
O          3.48255        -7.88479         0.97259
H          4.22868        -8.36139         1.39144
O         -2.86226       -10.30234        -2.12247
H         -2.04605       -10.51378        -2.62087
O          2.98180         6.35725        -1.10985
H          2.64806         6.88585        -1.87693
O         -5.43887         1.36680         2.74697
H         -6.11943         2.05176         2.94566
O          7.53076        -5.84035         1.47084
H          7.52858        -4.92210         1.83935
O         -0.17649        -1.23949        -0.88682
H          0.47859        -1.81307        -1.35193
O          1.01511        -9.22936        -2.91663
H          0.45682        -8.43991        -3.11060
O          7.63659         5.89418         2.13251
H          6.75483         6.15798         2.47674
O          8.76523         3.50333         1.91341
H          8.15911         4.19021         2.29535
O          4.23162         5.06899         2.71000
H          3.43323         5.33653         3.23080
O         -7.70453        -5.89337         1.95276
H         -8.09876        -5.02457         2.24661
O          9.75345        -1.08108        -2.46537
H         10.43366        -1.61777        -2.92545
O         -5.15845        -6.03394         1.93466
H         -5.13551        -5.13829         2.34897
O          7.14404        -1.39337        -1.91185
H          7.98743        -1.46361        -2.42466
O         -3.16343         6.72291        -2.08259
H         -3.80020         6.85460        -2.81627
O          2.71066        -6.82291        -2.43542
H          1.89009        -6.40872        -2.78206
O         -2.72853        -3.60594         2.32035
H         -2.10478        -3.14232         2.92706
O          1.69260         8.28353        -2.44973
H          1.92560         9.00161        -3.07641
O          1.66845        -0.99787         2.28895
H          0.90024        -0.88010         2.88621
O         -6.20062        -5.18189        -1.46102
H         -5.67489        -5.95388        -1.77317
O         -8.56601         7.64011        -1.19484
H         -8.54671         7.97487        -0.27417
O         -7.52515        -2.71964        -1.42171
H         -6.67184        -2.29295        -1.68665
H         12.20296        -0.98527        -0.87034
H         12.22438         1.38123        -0.42285
H         11.22513         3.45527        -0.06354
H          9.21944         5.43401        -0.79758
H          8.43242         7.87292        -0.07985
H          7.14517        10.03314        -0.16484
H          5.00346        11.12151        -0.59331
H          2.63897        10.77633        -1.37807
H          0.17030        10.53228        -2.03285
H         -2.30894        10.68457        -1.98675
H         -4.67257        10.45712        -2.63795
H         -6.82221         9.30141        -2.51415
H         -7.40463         6.54197        -2.48371
H         -9.59793         5.41178        -0.84040
H        -11.01522         3.33819        -0.24788
H        -12.19167         1.16963        -0.51726
H        -12.05273        -1.22867        -0.88903
H        -10.82081        -3.40970        -0.72837
H         -8.75862        -5.22145        -1.17735
H         -8.47821        -8.03715         0.03829
H         -7.20124        -9.98236        -0.63401
H         -5.11774       -11.20909        -0.71974
H         -2.38151       -11.23023        -0.30670
H         -0.09321       -11.05898        -1.37373
H          2.58536       -10.98184        -1.54867
H          4.99252       -11.02827        -1.14471
H          7.11958        -9.89362        -0.86059
H          8.41696        -7.79838        -0.36884
H          9.72363        -5.32270         0.33191
H         10.91056        -3.28074        -1.02786
