         429
 CSIRO Nanostructure Databank - Neutral Graphene Oxide Data Set
C          1.08175         3.59087         0.88953
C         -0.09673         4.22823         0.58629
C          1.07852         6.30968         0.08563
C         -0.09822         5.58784         0.17791
C          1.04708         7.73472        -0.42719
C         -0.04836         8.57687         0.17480
C          1.16820        10.62413        -0.43273
C          0.00071         9.92263         0.07940
C          1.15380        12.02084        -0.64785
C         -0.05898        12.77638        -0.57196
C          1.11501        14.84876        -1.15249
C         -0.07367        14.12387        -0.78928
C          1.10139        16.25613        -1.28649
C         -0.05555        16.99943        -0.88511
C          1.06837        19.19087        -1.14999
C         -0.09894        18.35734        -0.80874
C          1.27831        20.47726        -0.46712
C          0.23158        21.07675         0.30886
C          1.63262        23.08721         0.78294
C          0.35079        22.31671         0.85082
C          1.47520        24.58380         0.61379
C          0.25784        25.24563         0.85599
C          1.36287        27.42796         0.79979
C          0.19074        26.62878         0.90587
C          1.35090        28.82225         1.07420
C          0.14665        29.54494         1.32856
C          1.34123        31.66903         1.82892
C          0.11254        30.86066         1.70310
C          1.19594        33.19484         1.93355
C          0.14064        33.87974         1.09379
C          1.15825        36.05845         1.57985
C          0.06193        35.24502         1.12757
C          1.15817        37.46833         1.63409
C          3.54038         3.63850         1.06438
C          2.32772         4.28802         0.79352
C          3.54885         6.37128         0.26388
C          2.32363         5.67004         0.38581
C          3.54612         7.75148        -0.16759
C          2.37819         8.45500        -0.35612
C          3.60154        10.58704        -0.79653
C          2.38937         9.89077        -0.58194
C          3.61940        12.00652        -1.01643
C          2.36275        12.72593        -0.99160
C          3.58126        14.77839        -1.69344
C          2.32781        14.09615        -1.28987
C          3.55616        16.24939        -2.02248
C          2.19401        16.97800        -2.07233
C          3.58657        19.15626        -1.64763
C          2.27672        18.48020        -1.75553
C          3.60901        20.51235        -1.32230
C          2.49204        21.17657        -0.67800
C          3.80006        23.28672        -0.44426
C          2.63548        22.50547        -0.18405
C          3.82597        24.68798        -0.14250
C          2.62827        25.34628         0.31634
C          3.78615        27.52530         0.20279
C          2.60130        26.76875         0.44945
C          3.80200        28.93406         0.49125
C          2.69444        29.45265         1.38313
C          3.80346        31.78712         1.07043
C          2.65225        30.98103         1.56470
C          3.75730        33.23116         1.18429
C          2.56093        33.90560         1.77744
C          3.62804        36.18702         1.28901
C          2.46911        35.39830         1.68707
C          3.61855        37.58195         1.46609
C          2.34084        38.20291         1.71749
C          5.99225         3.69111         1.31481
C          4.77579         4.32883         0.99715
C          5.99648         6.43890         0.65374
C          4.77979         5.72432         0.61927
C          5.95586         7.93501         0.47035
C          4.87657         8.37014        -0.51351
C          6.04757        10.54434        -0.77854
C          4.85716         9.87744        -0.67813
C          6.11293        11.92618        -1.38694
C          4.83616        12.70277        -1.20004
C          6.07750        14.84139        -1.45035
C          4.87179        14.11047        -1.39093
C          6.07821        16.27536        -1.73776
C          4.83016        17.01201        -1.91844
C          6.05356        19.15026        -2.17997
C          4.80425        18.41006        -1.91597
C          6.07567        20.64824        -2.06091
C          4.81331        21.32581        -1.59500
C          6.12618        23.41443        -1.25254
C          4.92893        22.68911        -1.06254
C          6.12814        24.80424        -0.98533
C          4.97255        25.45234        -0.48797
C          6.12794        27.65284        -0.55958
C          4.95571        26.89004        -0.30714
C          6.12773        29.08508        -0.30719
C          4.91728        29.71588         0.21707
C          6.02267        31.96304         0.03864
C          4.87247        31.14844         0.45800
C          6.08029        33.38980         0.42294
C          4.84469        34.01441         0.81538
C          6.05841        36.24830         0.80588
C          4.76874        35.51282         0.62247
C          6.08413        37.61595         1.13413
C          4.85213        38.29286         1.39693
C          8.44482         3.75491         1.59850
C          7.21767         4.39261         1.30364
C          8.44094         6.53954         1.01693
C          7.21251         5.80468         0.99102
C          8.44150         7.90656         0.53500
C          7.29240         8.50824         0.09031
C          8.60414        10.59000        -0.64529
C          7.31625         9.80599        -0.60704
C          8.54434        12.06189        -0.77197
C          7.35337        12.72195        -1.04227
C          8.54664        14.86424        -1.05591
C          7.33621        14.15653        -1.18128
C          8.51338        16.33765        -1.15505
C          7.28889        16.97197        -1.68137
C          8.60298        19.16357        -1.82189
C          7.37199        18.38968        -2.04156
C          8.60777        20.60225        -2.06993
C          7.35656        21.36965        -1.88410
C          8.63065        23.46592        -1.49584
C          7.36788        22.72743        -1.62178
C          8.61940        24.85498        -1.27354
C          7.31545        25.59957        -1.44801
C          8.55958        27.71271        -0.99550
C          7.33359        27.01998        -0.95746
C          8.52935        29.21749        -1.12675
C          7.29104        29.80513        -0.49799
C          8.56901        31.93250        -0.03895
C          7.27770        31.26957        -0.38231
C          8.55254        33.39930         0.24600
C          7.25079        34.10206         0.26087
C          8.57306        36.29981         0.36328
C          7.25902        35.57223         0.32593
C          8.57757        37.64841         0.98121
C          7.36168        38.27848         1.25921
C         10.89657         3.81175         1.85198
C          9.66240         4.46573         1.60950
C         10.90279         6.58929         1.36085
C          9.66047         5.88798         1.34134
C         10.92592         8.04744         1.16478
C          9.67620         8.70889         0.65061
C         11.00696        10.69994        -0.01932
C          9.79807        10.00580        -0.01182
C         10.99653        12.05890        -0.50270
C          9.79478        12.76197        -0.70613
C         11.04947        14.86104        -0.99861
C          9.80415        14.18414        -0.92607
C         11.08089        16.33492        -0.96926
C          9.80266        17.10296        -1.12975
C         11.14518        19.19443        -1.61274
C          9.89233        18.39918        -1.93168
C         11.15473        20.59414        -1.61401
C          9.92389        21.35366        -1.92159
C         11.09274        23.45590        -1.30306
C          9.88295        22.78201        -1.55600
C         11.09047        24.87535        -1.06320
C          9.82568        25.58147        -1.08343
C         11.02667        27.76191        -0.77726
C          9.77942        27.00506        -0.99612
C         11.08510        29.22878        -1.19250
C          9.82155        29.94257        -0.78428
C         11.06004        32.00844        -0.16648
C          9.83812        31.25078        -0.38293
C         11.05979        33.37856         0.04712
C          9.82446        34.15501         0.14901
C         11.10040        36.31475         0.18464
C          9.83306        35.51264         0.31005
C         11.06780        37.60083         0.99531
C          9.83733        38.23111         1.27898
C         13.36043         3.84707         2.03661
C         12.11683         4.50845         1.83866
C         13.35562         6.67316         1.66105
C         12.11768         5.93080         1.59496
C         13.37539         8.08739         1.37287
C         12.21514         8.74117         0.97988
C         13.48445        10.73518         0.30785
C         12.23692        10.08352         0.45918
C         13.57045        11.99596        -0.44425
C         12.26055        12.71619        -0.82507
C         13.55240        14.81786        -1.13049
C         12.29312        14.17523        -0.98722
C         13.58730        16.24901        -1.66531
C         12.36916        17.02787        -1.21899
C         13.57828        19.17241        -1.27936
C         12.36120        18.49611        -1.44212
C         13.58597        20.59262        -1.22882
C         12.36254        21.30898        -1.37896
C         13.57231        23.43111        -1.14107
C         12.35124        22.74242        -1.30267
C         13.58118        24.88321        -0.98387
C         12.31010        25.55882        -0.92089
C         13.59186        27.75317        -1.16300
C         12.32238        27.02020        -0.73959
C         13.54707        29.21592        -0.78605
C         12.35761        29.87925        -0.69085
C         13.58919        32.00046        -0.15742
C         12.32109        31.20435         0.02926
C         13.55705        33.37103         0.06096
C         12.31849        34.10328         0.20421
C         13.57423        36.17712         0.69863
C         12.34024        35.48344         0.40213
C         13.54921        37.57894         1.11774
C         12.27972        38.21555         1.31252
C         15.82127         3.82965         2.08578
C         14.56427         4.55556         2.06233
C         15.81030         6.73889         2.07783
C         14.54700         5.98598         1.94712
C         15.88540         8.14395         1.66247
C         14.60250         8.92511         1.64964
C         15.93149        10.83280         0.65583
C         14.68699        10.18198         0.81511
C         15.99306        12.16119         0.08280
C         14.78654        12.80066        -0.35907
C         16.06035        14.78370        -1.09837
C         14.76019        14.12002        -0.86503
C         16.10475        16.29129        -1.36888
C         14.84175        17.03681        -1.34123
C         16.05342        19.16572        -1.04320
C         14.83275        18.42659        -1.20432
C         16.05434        20.56031        -0.84211
C         14.80483        21.29784        -0.98154
C         15.99204        23.44186        -0.57150
C         14.78320        22.69815        -0.98929
C         16.07648        24.87216        -1.05248
C         14.77352        25.58708        -0.82852
C         16.08420        27.78378        -0.76313
C         14.77890        27.05904        -0.48083
C         16.06413        29.16631        -0.76074
C         14.82074        29.90067        -0.59108
C         16.10233        31.97579        -0.11198
C         14.81615        31.27885        -0.36079
C         16.11401        33.46171        -0.15878
C         14.79781        34.16781        -0.04545
C         16.05854        36.13032         0.90572
C         14.78288        35.53150         0.50590
C         16.03765        37.61947         1.30462
C         14.73491        38.28161         1.28907
C         18.30128         3.74553         1.86312
C         17.03206         4.45147         1.95057
C         18.31157         6.62058         1.57862
C         17.10695         5.92462         2.01467
C         18.33267         7.99862         1.55675
C         17.10596         8.78294         1.52393
C         18.38868        10.82083         0.87034
C         17.16174        10.17932         1.06429
C         18.46022        12.13506         0.27557
C         17.23926        12.81135        -0.08248
C         18.50456        14.84506        -0.70030
C         17.30089        14.14641        -0.62436
C         18.53304        16.28311        -0.86275
C         17.35406        16.99177        -1.08250
C         18.57437        19.17299        -0.77498
C         17.36222        18.47507        -1.31734
C         18.53280        20.57215        -0.57263
C         17.27741        21.24937        -0.55772
C         18.53730        23.45229         0.04618
C         17.24174        22.68794        -0.22760
C         18.51530        24.91330        -0.38939
C         17.31920        25.61636        -0.61179
C         18.56933        27.72495        -0.69127
C         17.32901        27.03436        -0.73460
C         18.61393        29.16884        -0.99808
C         17.31223        29.96226        -1.11248
C         18.65590        32.08749        -0.39948
C         17.39881        31.28039        -0.34283
C         18.64347        33.48837        -0.14009
C         17.38446        34.18949         0.08859
C         18.53208        36.36422         0.38640
C         17.33028        35.51836         0.43852
C         18.51139        37.73496         0.95438
C         17.29939        38.36057         1.23645
C         19.45229         4.37583         1.54659
C         20.79311         6.51297         1.35887
C         19.48761         5.81014         1.07952
C         20.85601         7.84177         1.54152
C         19.64099         8.68817         1.60427
C         20.91982        10.79045         0.83441
C         19.66270        10.17730         1.27618
C         20.91503        11.99927         0.20901
C         19.70246        12.72704        -0.00778
C         20.93981        14.90897        -0.13975
C         19.80579        14.08143        -0.67693
C         20.91945        16.26295        -0.18947
C         19.76800        17.00960        -0.62149
C         20.99713        19.17926        -0.43741
C         19.77944        18.43407        -0.62504
C         20.99648        20.54339        -0.39503
C         19.77778        21.30523        -0.41413
C         20.98898        23.47668        -0.35777
C         19.79216        22.70653        -0.34323
C         20.97213        24.84966        -0.27385
C         19.75225        25.60884        -0.31824
C         20.97436        27.78994        -0.14209
C         19.77381        27.03410        -0.43904
C         21.01835        29.14423        -0.18331
C         19.90352        29.92263        -0.74591
C         21.08387        32.12297        -0.46046
C         19.87766        31.40563        -0.54548
C         21.08014        33.48911        -0.19596
C         19.87482        34.18969        -0.03103
C         21.06098        36.38113         0.65286
C         19.88118        35.66591         0.15750
C         20.97734        37.71225         1.00649
C         19.75166        38.40382         1.10009
O         16.26750        23.11423         0.82527
O         16.10482        36.51679         2.31330
O          8.58890        32.40078         1.35440
O         11.93986        16.78063         0.16310
O          8.14555         9.83185        -1.84390
O         16.57689         6.43863         3.28719
O         19.52851        29.48638        -2.10829
O         10.05272         8.78871         2.09597
O          2.86114        34.67198         2.98414
O          3.59740        15.25112        -3.10580
O          6.41782        31.87688        -1.40591
O          8.98934        17.10186         0.06658
O          7.83016        36.22463        -0.91285
O         11.69206        27.48818         0.49984
O          6.74852        18.68313        -3.36800
O          1.36382        19.25450        -2.58899
O          9.39893        21.04166        -3.26757
O         13.03490        11.95038        -1.80977
O          2.24518        31.27708         2.95085
O         16.18340        15.30485        -2.47633
O         16.82902        31.33807         1.00831
O          5.18931        21.28651        -3.03280
O         15.45981        33.99270        -1.36634
O         19.68608         9.69301         2.67012
O         19.17548        36.35033        -0.93384
O         19.34809         5.74118        -0.38371
H         19.46021         6.64866        -0.73734
O         18.67044        23.53261         1.50633
H         17.75321        23.59302         1.86416
O          7.14963        25.74021        -2.91599
H          7.10467        24.83396        -3.29276
O          2.25900        22.93392         2.12430
H          2.32772        21.97213         2.30405
O         12.28549        30.84832         1.46353
H         12.87877        30.07795         1.60005
O         11.16306        36.74003        -1.22134
H         10.27157        37.06667        -1.47094
O         13.53293        16.15553        -3.11612
H         14.38478        15.74883        -3.40223
O         10.01537        17.97006        -3.32570
H          9.88825        18.76723        -3.88765
O         16.22179        24.73495        -2.50963
H         16.04386        25.61159        -2.91380
O         11.16360        29.23657        -2.65525
H         10.23710        29.31145        -2.99790
O         17.14021        30.34428        -2.50048
H         18.02121        30.24818        -2.93570
O          8.38967        29.44799        -2.59057
H          7.59790        28.95125        -2.89385
O          3.05475        28.89207         2.68921
H          2.66134        29.49969         3.36109
O          4.46937        35.65053        -0.84119
H          5.32684        35.60191        -1.32033
O          5.26019         7.80990        -1.79955
H          4.59279         8.08014        -2.46419
O         17.51099        18.59376        -2.80249
H         18.31584        18.08984        -3.05233
O         14.41665         9.38433         3.04333
H         15.27480         9.74491         3.35359
O          0.73688         7.62673        -1.86183
H          0.66381         8.53978        -2.21300
O          0.73214        33.40971         3.28829
H          1.44085        33.08363         3.88579
O          6.22047        11.66818        -2.83510
H          6.96635        11.02834        -2.94297
O         13.73378        27.61186        -2.59085
H         13.04064        28.17234        -3.01066
O         14.53903        27.16540         0.95111
H         15.22402        26.64379         1.41874
O          1.71836        16.90234        -3.43721
H          2.10414        16.08248        -3.82825
O          5.60122         8.52585         1.75852
H          6.26783         8.23770         2.41762
O         20.13244        13.80832        -2.09332
H         19.31572        13.47593        -2.52364
H          1.08476         2.53654         1.20161
H         -1.05135         3.68756         0.65124
H         -1.05588         6.06092        -0.08111
H         -0.93552         8.08788         0.60353
H         -0.84386        10.51465         0.45953
H         -1.00589        12.26734        -0.34946
H         -1.03740        14.64460        -0.73456
H         -0.94890        16.45348        -0.55321
H         -1.02277        18.84089        -0.46335
H         -0.71236        20.53027         0.44180
H         -0.47101        22.71668         1.46091
H         -0.66032        24.66794         1.02837
H         -0.77716        27.09889         1.12398
H         -0.81421        29.02297         1.21121
H         -0.85170        31.34959         1.90054
H         -0.68412        33.28894         0.66871
H         -0.82113        35.75247         0.70832
H          0.19604        38.00245         1.62073
H          3.53353         2.57595         1.35000
H          2.29544        39.29599         1.82531
H          5.98436         2.62686         1.59400
H          4.86498        39.37365         1.59937
H          8.45133         2.67502         1.80950
H          7.37651        39.30537         1.65468
H         10.89704         2.72965         2.05096
H          9.85545        39.21346         1.77669
H         13.37280         2.75264         2.14721
H         12.26602        39.21602         1.77247
H         15.77341         2.73010         2.10442
H         14.70157        39.37225         1.43098
H         18.30564         2.66830         2.09037
H         17.29101        39.43473         1.47660
H         20.39416         3.80828         1.50264
H         21.71632         5.91345         1.35001
H         21.82512         8.32329         1.73831
H         21.86713        10.27577         1.04249
H         21.86588        12.43455        -0.12689
H         21.83583        14.40200         0.24451
H         21.80128        16.81134         0.16998
H         21.95633        18.64881        -0.37600
H         21.95573        21.06588        -0.28438
H         21.96079        22.97580        -0.46774
H         21.93251        25.38213        -0.29256
H         21.84654        27.25056         0.25207
H         21.89985        29.67479         0.20351
H         22.04200        31.60553        -0.60420
H         22.03795        34.02394        -0.14132
H         22.01854        35.85146         0.75167
H         21.89652        38.24313         1.29425
H         19.75174        39.45065         1.43568
