         630
 CSIRO Nanostructure Databank - Neutral Graphene Oxide Data Set
C         22.94884        27.35497         1.02615
C         22.93634        28.73762         1.04154
C         22.95447        31.66189         0.48207
C         22.95191        33.04490         0.34438
C         22.97271        36.02496         0.22792
C         22.98863        37.30131        -0.20736
C         23.09879        40.17216        -0.92597
C         23.09120        41.56308        -0.96329
C         23.04496        44.48720        -0.97638
C         22.98936        45.84188        -1.11888
C         25.44668        24.57462         0.59059
C         24.21641        25.24988         0.67887
C         25.41746        27.30322         1.29131
C         24.16002        26.60883         0.99116
C         25.40644        28.84152         1.28812
C         24.12654        29.52035         0.99427
C         25.43172        31.58092         0.49587
C         24.13342        30.89313         0.67125
C         25.41564        33.07780         0.35697
C         24.13787        33.81772         0.37529
C         25.44428        35.92241         0.28682
C         24.19156        35.22974         0.32660
C         25.40123        37.43244         0.29524
C         24.29198        37.95060        -0.62329
C         25.47407        40.18447        -0.42887
C         24.26871        39.46709        -0.62662
C         25.47351        41.59330        -0.49688
C         24.26859        42.30005        -0.72774
C         25.48757        44.45437        -0.67850
C         24.26788        43.76454        -0.73350
C         25.49764        45.92282        -0.64316
C         24.15625        46.67529        -0.84401
C         25.43893        48.69279        -1.41031
C         24.24581        48.04790        -1.34976
C         27.98333        23.16846         0.14872
C         27.94989        24.52272         0.56796
C         26.67917        25.22114         0.75323
C         27.89741        27.34189         1.16770
C         26.70303        26.62381         1.06587
C         27.91531        28.77928         1.15000
C         26.69770        29.50889         1.06192
C         27.92839        31.59692         0.81595
C         26.70886        30.89844         0.83601
C         27.93675        33.07428         0.87038
C         26.64992        33.82858         0.72609
C         27.93379        35.94121         0.33464
C         26.67183        35.26845         0.41903
C         27.95083        37.35051         0.10053
C         26.72919        38.09124         0.00614
C         27.98293        40.16847        -0.37610
C         26.73465        39.46109        -0.23130
C         27.99617        41.57733        -0.50972
C         26.74491        42.34427        -0.17274
C         27.94899        44.45048        -0.88930
C         26.74876        43.77029        -0.66810
C         27.94904        45.89369        -1.07728
C         26.73602        46.63387        -0.96840
C         27.94561        48.73579        -1.33195
C         26.70684        48.02457        -1.19497
C         27.98176        50.15733        -1.36227
C         30.40914        23.11986         0.33749
C         29.17660        22.48181         0.05968
C         30.40408        24.50590         0.65427
C         29.16821        25.19084         0.79663
C         30.43044        27.35343         1.06301
C         29.17899        26.58134         1.38798
C         30.41224        28.76623         1.03447
C         29.15951        29.48427         1.04450
C         30.40285        31.63639         0.83534
C         29.16282        30.89993         0.90714
C         30.40307        33.05616         0.64712
C         29.19143        33.79960         0.61976
C         30.40998        35.88780         0.14142
C         29.16878        35.19850         0.38764
C         30.40249        37.27320        -0.10856
C         29.19054        38.02363        -0.11240
C         30.43580        40.13183        -0.58853
C         29.20379        39.43185        -0.37033
C         30.40452        41.52221        -0.86339
C         29.19924        42.26396        -0.78604
C         30.37999        44.38423        -1.29805
C         29.20800        43.71578        -0.97507
C         30.37340        45.82562        -1.57839
C         29.14659        46.59310        -1.33408
C         30.42788        48.73228        -1.41957
C         29.17470        48.01369        -1.38884
C         30.42237        50.15527        -1.37572
C         29.17580        50.83904        -1.37806
C         32.85286        20.27030         0.27773
C         31.67350        20.98236         0.19095
C         32.88589        23.07375         0.55862
C         31.65646        22.38800         0.34382
C         32.88017        24.50523         0.75573
C         31.65672        25.20690         0.81995
C         32.88075        27.35977         0.94560
C         31.64627        26.64365         0.95100
C         32.87888        28.78548         0.98665
C         31.64075        29.49298         0.97092
C         32.87372        31.63843         0.91228
C         31.63922        30.92759         0.90911
C         32.87357        33.06266         0.73091
C         31.64716        33.75868         0.52820
C         32.90212        35.82683         0.14888
C         31.65669        35.15475         0.23801
C         32.95096        37.18821        -0.41126
C         31.64830        37.95211        -0.50841
C         32.91502        40.11603        -0.57427
C         31.68191        39.42478        -0.57676
C         32.91856        41.52917        -0.81556
C         31.66779        42.17909        -1.23880
C         32.95049        44.42190        -1.31335
C         31.67058        43.68398        -1.48364
C         32.96047        45.84100        -1.34271
C         31.71226        46.58378        -1.60845
C         32.88531        48.73872        -1.17934
C         31.67445        48.04049        -1.38646
C         32.89398        50.18068        -1.17262
C         31.66919        50.88028        -1.31476
C         32.87808        53.00164        -1.33275
C         31.69665        52.30224        -1.38930
C         35.34853        18.78665         0.58559
C         35.32118        20.15792         0.56576
C         34.09050        20.92579         0.47588
C         35.36589        23.04495         0.79417
C         34.10773        22.34247         0.57908
C         35.35193        24.48384         0.94605
C         34.12533        25.20641         0.90867
C         35.32474        27.36873         1.12485
C         34.11635        26.64289         0.97431
C         35.34900        28.78680         1.11950
C         34.11712        29.50323         1.03135
C         35.35310        31.63697         1.07189
C         34.11724        30.93060         1.02418
C         35.33310        33.12686         1.31541
C         34.08375        33.80241         0.80776
C         35.31180        35.98242         0.94012
C         34.09326        35.17429         0.54981
C         35.39182        37.35501         0.32706
C         34.28114        37.92915        -0.51077
C         35.33846        40.15181        -0.12591
C         34.17126        39.43441        -0.35017
C         35.28507        41.62676        -0.14461
C         34.09016        42.28719        -0.71706
C         35.43608        44.34755        -1.11442
C         34.12538        43.67586        -1.02339
C         35.44345        45.90412        -1.18969
C         34.14569        46.60561        -1.13311
C         35.35023        48.76544        -0.76109
C         34.11102        48.00880        -1.03680
C         35.38083        50.22779        -1.01244
C         34.13023        50.91482        -1.11111
C         35.36835        53.06434        -1.12138
C         34.12498        52.33286        -1.19393
C         35.39087        54.47960        -1.12819
C         37.79740        18.67443         0.58334
C         36.57812        18.05731         0.47891
C         37.81799        20.11207         1.06010
C         36.63442        20.89731         0.45278
C         37.80260        23.04083         1.21897
C         36.55307        22.33529         0.93263
C         37.82552        24.50249         1.12582
C         36.58951        25.17465         1.10681
C         37.89510        27.38331         1.33818
C         36.55704        26.61861         1.36255
C         37.83599        28.82613         1.05860
C         36.59962        29.50848         1.08433
C         37.82600        31.66925         0.87758
C         36.57792        30.94751         1.01936
C         37.83004        33.09784         0.82306
C         36.60355        33.83445         0.90479
C         37.83055        35.94848         0.69397
C         36.60387        35.21462         0.78555
C         37.82792        37.37036         0.63598
C         36.57544        38.06331         0.39626
C         37.79881        40.21429         0.31496
C         36.59706        39.49761         0.15716
C         37.84379        41.63904         0.11239
C         36.58571        42.37876        -0.07118
C         37.87810        44.42708        -0.59693
C         36.66372        43.73744        -0.61768
C         37.89559        45.86756        -0.76692
C         36.68548        46.56547        -0.83625
C         37.90409        48.72745        -0.97567
C         36.64289        48.02112        -0.61602
C         37.87796        50.19581        -1.22165
C         36.59084        50.93084        -1.05618
C         37.85107        53.08129        -0.95186
C         36.60414        52.35655        -1.06305
C         37.81132        54.50106        -0.90109
C         36.58953        55.17347        -1.02928
C         40.24977        15.91723        -0.12981
C         39.08178        16.57794         0.19812
C         40.23404        18.73777         0.08944
C         39.04649        17.98958         0.30961
C         40.24238        20.18201         0.26756
C         39.10838        20.83580         0.73167
C         40.33539        23.04570         0.66337
C         39.15656        22.25978         1.04086
C         40.30189        24.46150         0.75679
C         39.08478        25.19324         1.04401
C         40.30875        27.33551         0.79065
C         39.11011        26.61126         1.03926
C         40.25706        28.77129         0.68633
C         39.05733        29.50932         0.78114
C         40.24218        31.69669         0.47428
C         39.04367        30.96217         0.68511
C         40.28118        33.10495         0.54758
C         39.05405        33.81401         0.68573
C         40.29590        35.95867         0.65058
C         39.06325        35.24264         0.67194
C         40.29375        37.38072         0.67184
C         39.05066        38.08052         0.61624
C         40.26204        40.21692         0.67421
C         39.05699        39.51634         0.54316
C         40.20292        41.71298         0.85413
C         39.03332        42.35612         0.16152
C         40.31794        44.45068        -0.10584
C         39.08858        43.75452        -0.15990
C         40.34792        45.83717        -0.45854
C         39.16177        46.56296        -0.67769
C         40.32950        48.74833        -0.54942
C         39.18587        48.01099        -0.74137
C         40.24359        50.24380        -0.29591
C         39.21817        50.93884        -1.23092
C         40.30721        53.10611        -0.58178
C         39.09535        52.39841        -0.86031
C         40.30669        54.49821        -0.55021
C         39.07408        55.32323        -0.83846
C         40.04961        57.09069         0.65481
C         38.96617        56.45735         0.17593
C         42.63809        15.96144        -0.74528
C         41.43373        16.64360        -0.38913
C         42.62607        18.80911        -0.58403
C         41.42990        18.06562        -0.28821
C         42.60873        20.22531        -0.45407
C         41.46383        20.92215         0.02953
C         42.71410        23.08915         0.01616
C         41.49121        22.34684         0.20689
C         42.72812        24.47319         0.24700
C         41.51638        25.19461         0.53140
C         42.81166        27.33310         0.60987
C         41.52357        26.60688         0.60957
C         42.78838        28.83975         0.51754
C         41.47749        29.48269         0.27295
C         42.77298        31.70059         0.19274
C         41.48092        30.98588         0.14858
C         42.76293        33.13808         0.33729
C         41.53365        33.82804         0.47963
C         42.76409        35.97729         0.66641
C         41.53913        35.25245         0.60005
C         42.76842        37.40866         0.78814
C         41.52480        38.10552         0.74370
C         42.73855        40.22602         1.05895
C         41.51363        39.52953         0.81445
C         42.68731        41.70645         1.18704
C         41.51159        42.41682         0.64548
C         42.81837        44.45550         0.30343
C         41.54838        43.75817         0.30118
C         42.95008        45.78806        -0.40657
C         41.63458        46.53664        -0.63742
C         42.85234        48.82133        -0.27753
C         41.62558        48.06280        -0.61923
C         42.80694        50.25123        -0.24188
C         41.57605        50.96715        -0.36317
C         42.78971        53.09219        -0.18622
C         41.56591        52.36787        -0.39389
C         42.78845        54.51413        -0.06638
C         41.54309        55.23968        -0.31319
C         42.58186        57.16812         1.01690
C         41.41845        56.66762         0.29182
C         43.79161        16.65806        -0.97487
C         45.06822        18.76947        -1.08224
C         43.83328        18.09005        -0.90544
C         45.07362        20.21731        -1.26285
C         43.76117        21.00307        -0.91779
C         45.08594        23.08186        -0.72460
C         43.89502        22.41753        -0.50398
C         45.25958        24.45506        -0.22969
C         44.01903        25.18664         0.24172
C         45.20740        27.37537        -0.09806
C         44.04865        26.65672         0.22104
C         45.16987        28.82375        -0.11267
C         44.00336        29.55225         0.08907
C         45.22572        31.75541        -0.25598
C         43.95408        30.99325         0.03002
C         45.23136        33.16730         0.28348
C         43.99594        33.86143         0.40514
C         45.23699        35.97890         0.73136
C         44.00070        35.27312         0.61790
C         45.24490        37.40076         0.93842
C         43.98747        38.12527         0.96098
C         45.17125        40.20207         1.82146
C         43.97083        39.54552         1.13288
C         45.30902        41.80705         1.67491
C         43.97342        42.48541         1.35238
C         45.26106        44.51069         0.68098
C         43.98542        43.84264         0.74808
C         45.25578        45.98840         0.68643
C         43.99226        46.67796         0.26840
C         45.26529        48.84062         0.17096
C         44.04064        48.13659        -0.01820
C         45.26010        50.25974         0.10575
C         44.02765        50.96582        -0.05457
C         45.22558        53.11563         0.23471
C         44.01205        52.39003         0.00118
C         45.19447        54.52474         0.41506
C         43.93219        55.21839         0.35577
C         43.78910        56.54381         0.91042
C         47.51851        18.81569        -1.21892
C         46.33735        18.12259        -1.08307
C         47.56688        20.25366        -1.29569
C         46.34280        20.93855        -1.25977
C         47.58102        23.15681        -1.31941
C         46.27458        22.40873        -1.30641
C         47.61022        24.58282        -0.94701
C         46.45972        25.25180        -0.59775
C         47.66552        27.39410        -0.61641
C         46.43457        26.69031        -0.46174
C         47.69439        28.86915        -0.56808
C         46.40648        29.58786        -0.38711
C         47.72056        31.71680         0.04210
C         46.43201        30.96174         0.23360
C         47.69547        33.06994         0.31820
C         46.45360        33.81891         0.46887
C         47.68192        35.96811         0.74043
C         46.46603        35.25067         0.68868
C         47.69357        37.37857         0.84646
C         46.47402        38.08331         1.03821
C         47.72531        40.26781         0.91041
C         46.59646        39.49859         1.58142
C         47.71404        41.68080         0.80968
C         46.48268        42.39291         0.93757
C         47.75889        44.55110         0.98501
C         46.46227        43.80713         0.74162
C         47.73065        46.01368         0.60292
C         46.53267        46.71785         0.56540
C         47.72989        48.84584         0.30107
C         46.51038        48.13500         0.34952
C         47.72399        50.28730         0.26616
C         46.48508        50.98694         0.23433
C         47.68513        53.13372         0.48295
C         46.46973        52.41409         0.30804
C         47.62229        54.54353         0.64338
C         46.41777        55.21410         0.62928
C         50.09717        20.28964        -1.33381
C         48.82427        20.96656        -1.39211
C         50.06218        23.09341        -1.35173
C         48.85689        22.39840        -1.34905
C         50.12561        24.47991        -0.76251
C         48.90554        25.30197        -1.21982
C         50.13559        27.41094        -0.45504
C         48.87976        26.71632        -0.70611
C         50.18512        28.88877        -0.47798
C         48.96620        29.59388        -0.36953
C         50.19324        31.70063        -0.18928
C         48.96080        30.99955        -0.16503
C         50.22130        33.10180         0.10591
C         48.97759        33.74589         0.57042
C         50.20367        35.97384         0.52086
C         48.96305        35.24419         0.77616
C         50.17974        37.39363         0.55504
C         48.94630        38.10040         0.74667
C         50.15934        40.20316         0.38268
C         48.93709        39.52478         0.67702
C         50.11392        41.63897         0.08170
C         48.91161        42.41028         0.42992
C         50.19204        44.53379         0.28248
C         48.97205        43.80935         0.45709
C         50.20286        45.98626         0.37175
C         48.96801        46.70761         0.45994
C         50.20712        48.82648         0.30371
C         48.97341        48.12926         0.34999
C         50.23116        50.29964         0.00613
C         48.93877        51.01253         0.30728
C         50.18748        53.08874         0.62601
C         48.93962        52.41923         0.45813
C         51.27313        20.95369        -1.50060
C         52.58225        23.15563        -1.70924
C         51.27795        22.40840        -1.90686
C         52.59649        24.56657        -1.43968
C         51.41518        25.23067        -1.05084
C         52.66824        27.42339        -0.92933
C         51.46478        26.63011        -0.65992
C         52.65285        28.84552        -0.82623
C         51.41776        29.56444        -0.56325
C         52.61127        31.73024        -0.62687
C         51.43064        31.00730        -0.46776
C         52.60687        33.23430        -0.63684
C         51.39374        33.84079         0.02282
C         52.63789        35.96078         0.29672
C         51.39841        35.25696         0.28471
C         52.63647        37.34716         0.41574
C         51.41787        38.09539         0.45055
C         52.64486        40.26327         0.33725
C         51.40268        39.52907         0.37675
C         52.68857        41.64795         0.20248
C         51.44328        42.39265        -0.03052
C         52.67189        44.52140         0.23654
C         51.44122        43.85049         0.16467
C         52.69684        46.00015        -0.03621
C         51.41135        46.70074         0.31485
C         52.68354        48.84470         0.48193
C         51.42416        48.12370         0.35438
C         52.68200        50.25742         0.62944
C         51.45960        51.00158         0.52081
C         51.38922        52.38911         0.70992
C         54.99816        23.20942        -1.99915
C         53.78492        22.51230        -1.98143
C         55.04858        24.60094        -1.79572
C         53.83871        25.29911        -1.51652
C         55.04380        27.48014        -1.46192
C         53.84466        26.73468        -1.30960
C         55.06833        28.88247        -1.25476
C         53.85229        29.56663        -1.02243
C         55.13198        31.70928        -0.63562
C         53.85566        31.06831        -1.14636
C         55.10502        33.10991        -0.26108
C         53.90832        33.80850        -0.14489
C         55.17647        35.94138         0.21990
C         53.90945        35.16765         0.50737
C         55.18899        37.33784         0.32957
C         53.92341        38.04624         0.61435
C         55.18309        40.24365         0.33913
C         53.91117        39.55089         0.60058
C         55.16131        41.67568         0.30924
C         53.92674        42.37581         0.30640
C         55.13468        44.52785         0.48154
C         53.91501        43.81260         0.31537
C         55.12363        45.97791         0.61685
C         53.92922        46.70211         0.46183
C         55.12969        48.80855         0.90424
C         53.91073        48.11511         0.61389
C         55.09326        50.22721         1.03441
C         53.91777        50.92158         0.90502
C         57.54859        24.70332        -1.99132
C         56.31427        25.32308        -1.89512
C         57.59744        27.56200        -1.69145
C         56.26054        26.79000        -1.88518
C         57.53002        28.89668        -1.09179
C         56.33449        29.58573        -1.05848
C         57.57282        31.64621        -0.32664
C         56.31406        30.99096        -0.64019
C         57.58827        33.06263        -0.11651
C         56.36582        33.79270        -0.05200
C         57.63550        35.92516         0.11045
C         56.38979        35.21486         0.08487
C         57.64685        37.35582         0.13273
C         56.40058        38.07910         0.20887
C         57.62000        40.27053        -0.02256
C         56.37030        39.51496         0.20137
C         57.63384        41.71386         0.28708
C         56.39535        42.40150         0.36102
C         57.61274        44.49421         0.72370
C         56.37550        43.81859         0.53224
C         57.61724        45.93666         1.16236
C         56.33023        46.67856         0.89817
C         57.62656        48.73796         1.29904
C         56.34705        48.07147         1.03442
C         58.77813        25.41079        -1.85879
C         60.04029        27.47428        -1.25630
C         58.82191        26.76358        -1.58882
C         60.02027        28.73119        -0.76321
C         58.73864        29.39962        -0.32911
C         59.98053        31.59401        -0.01190
C         58.77994        30.91422        -0.27036
C         60.01333        32.97881         0.11592
C         58.83357        33.74302         0.05444
C         60.07114        35.90529         0.21312
C         58.85899        35.19341         0.13466
C         60.08581        37.29667         0.21137
C         58.89791        38.03646         0.14502
C         60.12706        40.28538         0.38845
C         58.94200        39.51160        -0.00609
C         60.08512        41.63543         0.52442
C         58.85662        42.39763         0.45341
C         60.06706        44.57804         0.90480
C         58.83500        43.81246         0.69441
C         60.08186        45.92501         0.88285
C         58.81515        46.69218         0.58833
C         58.80238        48.10794         1.11444
O         44.26336        46.46658         1.68408
O         53.93562        38.80106         1.88298
O         50.70055        41.97459        -1.22768
O         31.03528        46.16999        -2.84531
O         44.82959        39.98100         3.15939
O         41.37162        30.10709        -1.04769
O         56.94502        27.44823        -2.99167
O         41.67044        56.45799        -1.13351
O         24.74784        46.48784         0.47923
O         49.05891        34.31162         1.92444
O         44.96875        24.58972         1.20867
O         44.14193        20.72289        -2.29036
O         43.06841        42.31804         2.47611
O         46.79439        22.97191        -2.57412
O         50.88595        26.86429         0.69917
O         35.94598        48.45503         0.59228
O         35.70186        42.26189         1.12718
O         37.80747        49.25348        -2.36037
O         38.59084        22.56314         2.37073
O         46.94128        29.46605        -1.72840
O         42.92230        28.20554         1.81904
O         41.72436        47.29322        -1.89118
O         35.59112        45.06052        -2.37649
O         25.56202        32.23392        -0.83615
O         58.32530        39.94318        -1.27048
O         31.68080        42.73130        -2.60190
O         32.24255        37.27967        -1.70027
O         37.24952        27.00493         2.59620
O         25.37998        28.07568         2.53593
O         27.17577        33.55115         2.06987
O         53.94469        34.91124         1.96246
H         53.92995        35.78231         2.41534
O         46.30116        30.73933         1.66036
H         46.38322        31.60202         2.11960
O         43.50299        45.46986        -1.71496
H         43.12379        46.12585        -2.34850
O         58.65211        46.74472        -0.85393
H         59.41646        47.22660        -1.23125
O         50.05858        24.29016         0.67663
H         50.27622        25.16409         1.09050
O         57.80067        45.92062         2.61182
H         57.04216        45.44164         3.00598
O         49.04693        25.42874        -2.67345
H         48.19428        25.74847        -3.03751
O         45.34794        31.87432        -1.69976
H         44.50246        32.22402        -2.05029
O         24.61186        37.51665        -1.97147
H         23.91245        37.84532        -2.57321
O         37.66670        20.05029         2.49712
H         37.93077        20.93275         2.85977
O         35.14958        36.19248         2.38868
H         35.14483        35.29382         2.80324
O         34.75226        37.73735        -1.88929
H         33.94179        37.71867        -2.45284
O         39.22420        55.94159        -2.15226
H         40.11877        56.36447        -2.15811
O         51.11178        22.39828        -3.38099
H         50.19807        22.09356        -3.57104
O         35.27312        33.30088         2.78933
H         36.02384        32.80028         3.17597
O         52.78593        46.09456        -1.51482
H         52.00468        45.63030        -1.88544
O         39.75010        50.91328        -2.56928
H         39.29703        50.17528        -3.04405
O         47.16067        39.34598         2.90896
H         46.36165        39.43373         3.51723
O         39.71983        50.42418         1.05157
H         40.36331        50.05008         1.68914
O         58.52620        28.95215         1.06052
H         57.75293        29.44262         1.41253
O         36.92695        21.02034        -0.97823
H         36.11792        21.35199        -1.42207
O         50.35518        50.37350        -1.47890
H         50.41745        51.32513        -1.71122
O         47.90085        44.54317         2.45006
H         47.35678        43.80486         2.81095
O         53.86456        31.32932        -2.60139
H         53.61521        32.28167        -2.71651
O         26.76900        42.46647         1.30129
H         25.97116        42.97435         1.56361
O         25.02276        37.82877         1.64635
H         25.70942        37.49900         2.26301
O         39.92492        41.91980         2.29164
H         39.06150        41.49672         2.48910
O         45.69029        42.23639         3.00441
H         45.30270        41.51071         3.59546
O         29.24728        26.37770         2.85369
H         28.37935        26.02081         3.14061
O         52.51603        33.65569        -2.08185
H         51.63142        33.37948        -2.40725
H         21.99598        26.81096         0.94985
H         21.96387        29.24553         0.98017
H         21.98145        31.15177         0.50460
H         21.98071        33.55013         0.24845
H         22.01300        35.55029         0.47913
H         22.03952        37.84793        -0.30721
H         22.16027        39.63581        -1.12395
H         22.14256        42.07016        -1.17880
H         22.12314        43.91803        -1.15383
H         22.06643        46.32359        -1.47392
H         25.42017        23.50407         0.34879
H         23.28517        24.69872         0.48463
H         25.45206        49.73311        -1.76320
H         23.32501        48.54730        -1.68579
H         27.05161        22.63662        -0.08311
H         27.04717        50.73160        -1.32145
H         29.15182        21.42505        -0.23578
H         29.14862        51.93583        -1.35704
H         32.81806        19.17799         0.17577
H         30.73921        20.43024         0.02825
H         32.84288        54.09589        -1.40887
H         30.76346        52.86601        -1.51310
H         34.41620        18.20492         0.59357
H         34.45823        55.05199        -1.20956
H         36.50536        16.98702         0.23900
H         36.57717        56.27157        -1.06120
H         40.26655        14.82009        -0.19690
H         38.17576        15.99094         0.39870
H         39.94342        57.91092         1.38187
H         37.96416        56.79503         0.48102
H         42.62347        14.86525        -0.82739
H         42.46929        58.06300         1.64640
H         44.70076        16.10838        -1.25191
H         44.65613        56.98851         1.41862
H         48.45583        18.24475        -1.23669
H         46.38633        17.03010        -0.97922
H         48.54425        55.12327         0.78265
H         46.41543        56.30594         0.74838
H         50.12400        19.21039        -1.12772
H         50.21059        54.17662         0.76878
H         52.21942        20.39503        -1.46491
H         52.29537        52.96028         0.95452
H         55.91677        22.65483        -2.23181
H         53.79368        21.43933        -2.21696
H         56.01713        50.78363         1.23942
H         53.93816        52.01400         1.01129
H         57.60813        23.60844        -2.06398
H         57.62148        49.78376         1.63805
H         59.71225        24.83040        -1.84687
H         60.99985        26.96843        -1.44421
H         60.97529        29.22667        -0.54019
H         60.92392        31.03946         0.07559
H         60.98414        33.46438         0.27965
H         61.03071        35.37318         0.24004
H         61.05495        37.81319         0.22561
H         61.06862        39.75657         0.59389
H         61.01467        42.15763         0.78811
H         61.01004        44.03577         1.06255
H         61.02897        46.47455         1.00173
H         59.75479        48.63402         1.28429
