         344
 CSIRO Nanostructure Databank - Neutral Graphene Oxide Data Set
C          1.20334         2.21136        -0.50922
C          1.11335         3.51271        -0.12932
C          2.42002         1.46827        -0.38834
C          2.25923         4.21840         0.54422
C          1.37266         6.46182        -0.44782
C          1.36753         7.84622        -0.41019
C          2.34666         5.70579         0.23202
C          2.27980         8.57765         0.55617
C          1.16960        10.80715         0.38867
C          1.19092        12.18965         0.24799
C          2.35324        10.06386         0.30912
C          2.39016        12.87064        -0.05195
C          1.25786        15.10382        -0.03646
C          1.30101        16.50711        -0.00815
C          2.42075        14.33614        -0.13797
C          2.51442        17.18434        -0.10443
C          2.58485        18.63606        -0.03817
C          3.60846         2.08918        -0.01748
C          3.59441         3.51861         0.29919
C          4.83539         1.35411         0.04958
C          4.77773         4.18909         0.44778
C          3.52923         6.41583         0.74070
C          3.61885         7.88684         0.55128
C          4.80519         5.61868         0.85670
C          4.81499         8.54474         0.34998
C          3.57426        10.72707         0.05232
C          3.58264        12.12559        -0.18900
C          4.82850         9.98051         0.06365
C          4.82907        12.80229        -0.72634
C          3.68299        15.00723        -0.25047
C          3.72342        16.43257        -0.24680
C          4.89763        14.28236        -0.42409
C          4.96616        17.10342        -0.41595
C          3.73764        19.30073        -0.25277
C          4.99358        18.59282        -0.68386
C          6.06625         1.99130         0.20948
C          6.05421         3.47499         0.19692
C          7.31400         1.31776         0.21104
C          7.34722         4.18254         0.35408
C          6.09229         6.39364         0.83988
C          6.08241         7.81919         0.43709
C          7.37632         5.63878         0.68485
C          7.27803         8.42999         0.10344
C          6.02733        10.64303        -0.16139
C          6.11020        12.06729        -0.40485
C          7.26191         9.84948        -0.30264
C          7.31903        12.74240        -0.47984
C          6.11421        14.95719        -0.51945
C          6.15183        16.37928        -0.50322
C          7.37817        14.20283        -0.88605
C          7.45402        17.11943        -0.76757
C          6.24666        19.21201        -0.13697
C          7.42242        18.51714        -0.16545
C          8.56322         1.97242         0.32755
C          8.60196         3.42786         0.73633
C          9.78388         1.30930         0.18492
C          9.83104         4.17039         0.24989
C          8.59248         6.33978         0.24515
C          8.54190         7.71797         0.03592
C          9.80405         5.58198         0.09730
C          9.77889         8.42401        -0.19635
C          8.56706        10.58662        -0.38409
C          8.57418        12.05635        -0.28668
C          9.81390         9.83698        -0.16985
C          9.76130        12.72601        -0.06231
C          8.63514        14.91606        -0.40771
C          8.66681        16.31667        -0.33826
C          9.79321        14.17449        -0.04937
C          9.84908        16.98798         0.06239
C          8.65599        19.14127         0.20154
C          9.85513        18.43627         0.23594
C         11.03558         2.00969         0.14418
C         11.02842         3.46031         0.08148
C         12.26176         1.34637         0.06458
C         12.24151         4.16143        -0.21653
C         11.01594         6.27473        -0.20429
C         11.00829         7.72160        -0.25869
C         12.21432         5.56389        -0.36657
C         12.22146         8.44186        -0.30177
C         11.01855        10.52501        -0.03841
C         10.96392        11.94477         0.43452
C         12.24960         9.83561        -0.12909
C         12.27991        12.64952         0.31420
C         10.98867        14.84704         0.31111
C         11.03387        16.25665         0.34198
C         12.20283        14.07632         0.66396
C         12.28833        16.95307         0.62377
C         11.08381        19.10529         0.49065
C         12.29097        18.41639         0.62757
C         13.49679         2.05145        -0.08698
C         13.48655         3.46277        -0.29155
C         14.74128         1.38014        -0.01044
C         14.72293         4.18745        -0.48047
C         13.41762         6.29911        -0.90333
C         13.52543         7.69453        -0.27355
C         14.72579         5.58018        -0.69359
C         14.65175         8.50670        -0.90583
C         13.52469        10.55125        -0.03892
C         13.48733        11.98293         0.24539
C         14.71672         9.89677        -0.28949
C         14.75229        12.70410         0.35468
C         13.49450        14.80051         0.90113
C         13.46809        16.27190         0.82009
C         14.76304        14.07849         0.64967
C         14.73288        16.97184         1.23775
C         13.52333        19.11081         0.73312
C         14.74727        18.43972         0.87947
C         15.96044         2.07035        -0.13991
C         15.96278         3.48425        -0.42252
C         17.19607         1.40899         0.10065
C         17.17990         4.19288        -0.64002
C         15.94900         6.32415        -0.82257
C         15.94696         7.73577        -0.88733
C         17.18386         5.57029        -0.84956
C         17.15314         8.56850        -1.24636
C         15.99472        10.57823        -0.21966
C         15.99325        12.00417         0.15589
C         17.16473         9.92736        -0.56538
C         17.19987        12.69840         0.26739
C         15.98534        14.81897         0.66441
C         15.99172        16.23172         0.84425
C         17.22406        14.11052         0.49450
C         17.19607        16.94741         0.80563
C         15.97392        19.10706         0.83980
C         17.20838        18.39745         0.86586
C         18.42272         2.06984        -0.04543
C         18.45657         3.39633        -0.77995
C         19.61886         1.46377         0.34772
C         19.70826         4.20061        -0.50225
C         18.46630         6.28564        -1.07712
C         18.47750         7.79355        -1.16175
C         19.72718         5.58191        -0.73620
C         19.73058         8.51069        -0.79951
C         18.44028        10.72737        -0.72697
C         18.48262        11.89803         0.26442
C         19.71909         9.90461        -0.60765
C         19.72566        12.73073         0.07344
C         18.45257        14.82443         0.55382
C         18.44399        16.24461         0.69634
C         19.71442        14.12252         0.34823
C         19.65287        16.98586         0.73747
C         18.42996        19.08713         0.85049
C         19.66622        18.39836         0.80763
C         20.87283         2.13499         0.24943
C         20.90492         3.50965        -0.19472
C         22.05718         1.53784         0.68952
C         22.15845         4.18420        -0.29679
C         20.95708         6.30683        -0.70990
C         20.95139         7.77627        -0.72543
C         22.15881         5.59002        -0.55473
C         22.16871         8.48912        -0.61741
C         20.93633        10.60782        -0.44030
C         20.93431        12.06150        -0.22061
C         22.15780         9.89251        -0.50985
C         22.13876        12.80012        -0.21459
C         20.92731        14.83725         0.39683
C         20.95561        16.26217         0.89845
C         22.15585        14.17846         0.12964
C         22.10976        17.03176         0.26017
C         20.92147        19.12276         0.83046
C         22.13847        18.49793         0.62742
C         23.31898         2.18219         0.53621
C         23.36983         3.46250        -0.09041
C         24.48869         1.57763         1.07143
C         24.68220         4.00582        -0.61821
C         23.44361         6.30671        -0.40454
C         23.49055         7.77027        -0.82775
C         24.74627         5.54782        -0.39668
C         24.66799         8.47648        -0.14697
C         23.43097        10.64136        -0.62073
C         23.41898        12.14774        -0.50428
C         24.72679         9.95100        -0.45257
C         24.66796        12.83986        -0.16971
C         23.40779        14.87554         0.23597
C         23.39079        16.29923         0.58816
C         24.65426        14.20348         0.13062
C         24.68177        17.06183         0.62390
C         23.39019        19.18895         0.56022
C         24.62454        18.53496         0.45827
C         25.76611         2.16943         0.89070
C         25.87107         3.26201        -0.02210
C         26.95808         1.66351         1.48121
C         27.15719         3.67472        -0.36729
C         25.97566         6.37914        -0.65372
C         25.97603         7.77538        -0.43229
C         27.22267         5.81268        -0.96059
C         27.18243         8.49581        -0.51014
C         25.89330        10.64192        -0.38658
C         25.91430        12.06175         0.09869
C         27.18700         9.97899        -0.76435
C         27.19103        12.81296        -0.14171
C         25.92255        14.93078         0.20444
C         25.93087        16.33368         0.32816
C         27.15814        14.23973        -0.02392
C         27.13175        17.07033         0.21300
C         25.85745        19.20656         0.26389
C         27.08275        18.52367         0.17429
C         28.20097         2.31674         1.31381
C         28.30306         3.40241         0.38868
C         29.41171         1.88135         1.95582
C         29.42085         4.42144         0.61313
C         28.44287         6.42253        -0.67091
C         28.43796         7.83272        -0.54360
C         29.67302         5.55761        -0.43231
C         29.67404         8.57421        -0.54415
C         28.43777        10.69398        -0.31763
C         28.40614        12.08746        -0.16490
C         29.67950         9.96741        -0.36718
C         29.68372        12.84819         0.13199
C         28.37209        14.98815        -0.09152
C         28.36189        16.37494         0.04914
C         29.62767        14.24444        -0.49741
C         29.64740        17.14381         0.22510
C         28.29351        19.23348        -0.08882
C         29.52546        18.59678        -0.18035
C         30.62708         2.51204         1.68866
C         30.71224         3.72121         0.97345
C         31.96734         4.34838         0.68841
C         30.84559         6.47878         0.06613
C         30.93199         7.76548        -0.81010
C         32.07724         5.61800         0.19087
C         32.17600         8.57672        -0.58226
C         30.93820        10.69540        -0.32490
C         30.94856        12.09840        -0.24330
C         32.15943         9.91979        -0.41779
C         32.12496        12.87954        -0.36521
C         30.91501        15.02312        -0.31459
C         30.88556        16.44196        -0.30300
C         32.10873        14.27446        -0.35898
C         32.01043        17.23488        -0.57692
C         30.71560        19.30701        -0.48347
C         31.92547        18.63951        -0.64048
O          6.83000         3.97825        -0.99272
O          7.89634        10.09906        -1.61224
O         27.26217         4.51668        -1.48075
O         24.01834        16.61000         1.86737
O         23.45438        11.47535        -1.83804
O          6.92446         6.04831         2.01919
O         18.61205         6.97646        -2.38481
O          4.01353         5.91708         2.06219
O         24.11870         5.96031         0.85305
O         12.69625        14.30044         2.05276
O         23.76967         7.80277        -2.25339
H         22.96228         7.52771        -2.73651
O         29.73254        13.03988         1.57292
H         29.80374        12.15870         1.99562
O         29.85656        17.18007         1.68449
H         30.67235        17.70029         1.84522
O         18.40541        11.28118        -2.06698
H         18.05109        10.57803        -2.66259
O         17.00207         8.91221        -2.69231
H         17.38697         8.13585        -3.17477
O         13.18117         6.38128        -2.33396
H         13.60909         7.21169        -2.66701
O         14.32246         8.75865        -2.31477
H         15.17673         9.01269        -2.75302
O          8.65636         3.43280         2.19536
H          8.46195         4.34372         2.50729
O          1.69242         8.41274         1.88711
H          1.72151         7.45682         2.10714
O         24.39912         8.46058         1.27813
H         25.16499         8.85973         1.74137
O          7.55258        17.30503        -2.20653
H          6.76521        17.84078        -2.47445
O         25.88958        11.87465         1.59369
H         26.01414        12.76318         1.99553
O         21.22668        16.20182         2.32938
H         20.43543        15.83473         2.77524
O         14.73074        16.92467         2.71239
H         13.85363        17.24296         3.01472
O          7.41922        14.18571        -2.34556
H          6.57296        13.77874        -2.64580
O         28.94065         5.08468         1.84205
H         28.85502         4.39137         2.53215
O         30.59182         7.03808         1.37689
H         30.13758         6.35496         1.92933
O          1.98555         4.12964         1.98428
H          2.71272         4.62858         2.43412
O         18.53813         3.04827        -2.20462
H         19.35081         2.51414        -2.33088
O         21.92321        16.95453        -1.17835
H         22.45844        17.65787        -1.60072
O         29.51134        14.02327        -1.93545
H         29.49571        14.89645        -2.37965
O         24.67042         3.79153        -2.05686
H         25.58740         3.96468        -2.37579
O         27.22142        10.09882        -2.24147
H         26.38145         9.72466        -2.58654
O         13.89204         7.52389         1.12098
H         13.13017         7.12592         1.59193
O          4.72703        12.74150        -2.20310
H          4.74292        11.79331        -2.45665
O         10.74332        11.83847         1.89726
H         11.17393        12.61386         2.32240
O         30.07452         4.89146        -1.63404
H         30.36341         5.58503        -2.27246
O         18.59478        11.28523         1.58656
H         18.53977        11.99679         2.25823
O         30.93069         7.36846        -2.21743
H         30.85483         8.18404        -2.75673
O          5.07425        18.73310        -2.15797
H          4.27222        18.30828        -2.53122
H          0.31888         1.69893        -0.91579
H          0.14482         4.03040        -0.18052
H          2.42213         0.39849        -0.64123
H          0.58304         5.94219        -1.01243
H          0.59830         8.40679        -0.96109
H          0.22455        10.29339         0.61171
H          0.25238        12.74538         0.37195
H          0.27594        14.61813         0.03799
H          0.36584        17.07605         0.09488
H          1.66253        19.18417         0.20839
H          4.79722         0.25941        -0.05830
H          3.76392        20.39965        -0.20013
H          7.31123         0.22636         0.06054
H          6.22184        20.25317         0.22046
H          9.79026         0.22075         0.01733
H          8.65247        20.21549         0.44288
H         12.28952         0.24864         0.13669
H         11.08251        20.20394         0.55391
H         14.75652         0.29897         0.19277
H         13.52235        20.20611         0.62094
H         17.18223         0.37472         0.47753
H         15.99299        20.20151         0.72172
H         19.59113         0.45638         0.79045
H         18.42599        20.18693         0.88238
H         22.02443         0.53083         1.13093
H         20.88727        20.20929         1.00515
H         24.39349         0.64807         1.65105
H         23.37891        20.29006         0.58897
H         26.89539         0.78815         2.14428
H         25.85505        20.30307         0.16735
H         29.38931         0.98067         2.58547
H         28.23882        20.32145        -0.25132
H         31.55590         2.06194         2.07201
H         32.88176         3.76929         0.89608
H         33.07557         6.04731         0.01934
H         33.14390         8.05602        -0.63812
H         33.11992        10.44516        -0.31247
H         33.09923        12.38156        -0.47361
H         33.07522        14.79978        -0.37160
H         32.96494        16.75905        -0.84351
H         30.66513        20.39476        -0.63886
H         32.82868        19.21315        -0.89185
