         424
 CSIRO Nanostructure Databank - Neutral Graphene Oxide Data Set
C          1.44574         1.92696         0.43614
C          1.41521         3.32423         0.42025
C          2.58997         1.24522         0.04402
C          2.52432         4.07391        -0.03646
C          1.33558         6.25332         0.29570
C          1.32751         7.63930         0.36449
C          2.49782         5.54027        -0.04884
C          2.48284         8.39363         0.04953
C          1.35866        10.55039         0.58588
C          1.37675        11.93138         0.77952
C          2.49430         9.85470         0.15630
C          2.53491        12.68567         0.54016
C          1.37660        14.83981         1.22992
C          1.44325        16.11390         1.66404
C          2.55521        14.12625         0.72405
C          2.77226        16.83030         1.66060
C          2.69240        18.34185         1.66739
C          3.73625         1.96544        -0.38343
C          3.68035         3.38846        -0.45422
C          4.95098         1.27808        -0.65294
C          4.83664         4.12861        -1.07646
C          3.67787         6.27952        -0.36782
C          3.64661         7.70316        -0.33290
C          4.89832         5.58687        -0.69545
C          4.83350         8.45554        -0.88886
C          3.69554        10.59372        -0.10657
C          3.71294        12.01237         0.08471
C          4.88519         9.92590        -0.51641
C          4.89667        12.75366        -0.22929
C          3.69337        14.84704         0.41379
C          3.58057        16.35739         0.45512
C          4.89266        14.20290        -0.07962
C          4.88709        17.09128         0.35853
C          3.73509        19.07650         1.23434
C          4.93511        18.44509         0.67207
C          6.17160         1.99018        -0.78517
C          6.15191         3.41898        -0.87544
C          7.41158         1.31746        -0.74384
C          7.35393         4.14372        -0.91243
C          6.12268         6.27483        -0.80917
C          6.14484         7.76078        -0.50961
C          7.33325         5.58042        -0.98407
C          7.30843         8.49690        -1.13316
C          6.07290        10.65123        -0.72258
C          6.05011        12.07788        -0.66906
C          7.34031         9.96969        -0.97425
C          7.21734        12.83773        -1.17498
C          6.03329        14.94850        -0.35194
C          6.00483        16.42121        -0.28942
C          7.23906        14.33226        -0.94477
C          7.31621        17.18994        -0.42113
C          6.15159        19.17286         0.54993
C          7.34297        18.56038         0.13798
C          8.63022         2.03457        -0.68936
C          8.61135         3.46462        -0.77044
C          9.86470         1.36257        -0.51187
C          9.82764         4.19912        -0.58247
C          8.62954         6.23939        -1.40326
C          8.59328         7.76171        -1.38399
C          9.84288         5.63633        -0.74438
C          9.84479         8.51698        -1.17824
C          8.52736        10.64262        -1.16437
C          8.52832        12.11599        -1.51018
C          9.80286         9.94072        -1.18144
C          9.77405        12.85429        -1.04354
C          8.55446        15.03117        -0.81927
C          8.57507        16.42098        -0.52204
C          9.76541        14.29567        -0.88028
C          9.78846        17.11572        -0.33190
C          8.58814        19.21008         0.24219
C          9.79752        18.53281        -0.01924
C         11.05196         2.08351        -0.28452
C         11.00914         3.51257        -0.26780
C         12.29574         1.40929        -0.10945
C         12.19934         4.28361         0.22949
C         11.01668         6.37946        -0.62330
C         11.03184         7.81642        -0.87072
C         12.24359         5.72153        -0.23620
C         12.24505         8.54974        -0.70242
C         11.01218        10.68354        -1.07584
C         10.96427        12.13457        -1.03121
C         12.24879         9.97319        -0.86617
C         12.23616        12.88051        -1.09522
C         11.01522        15.00610        -0.71283
C         11.02438        16.41905        -0.46549
C         12.24911        14.32939        -0.82449
C         12.25388        17.12368        -0.34623
C         11.02949        19.21436         0.07733
C         12.25700        18.54776        -0.08874
C         13.51205         2.10852         0.01583
C         13.51169         3.55283         0.07368
C         14.74546         1.41811         0.03592
C         14.70059         4.25636         0.17393
C         13.43176         6.42429        -0.13663
C         13.44812         7.86362        -0.33680
C         14.68569         5.72198         0.15374
C         14.62026         8.59649        -0.08566
C         13.48304        10.66888        -0.68568
C         13.52847        12.11823        -0.96235
C         14.64218         9.99805        -0.26442
C         14.76759        12.87477        -0.69270
C         13.48544        15.01976        -0.69342
C         13.48723        16.43273        -0.45639
C         14.74191        14.32338        -0.73281
C         14.71913        17.13728        -0.25035
C         13.48550        19.24632         0.01285
C         14.72127        18.57966        -0.05373
C         15.96958         2.10578         0.16472
C         15.95927         3.54662         0.28427
C         17.20467         1.42117         0.17882
C         17.15791         4.22774         0.52365
C         15.85173         6.41872         0.33872
C         15.84106         7.92516         0.49926
C         17.10495         5.69628         0.67134
C         17.11953         8.55560        -0.05224
C         15.87473        10.78207         0.16197
C         15.91792        12.17403        -0.41724
C         17.17919        10.03801        -0.07729
C         17.20742        12.83268        -0.58714
C         15.93453        15.04984        -0.52050
C         15.93099        16.43754        -0.25204
C         17.22051        14.35589        -0.63223
C         17.18288        17.11812         0.26134
C         15.95353        19.27879         0.01563
C         17.20142        18.61147         0.03962
C         18.43086         2.10946         0.28933
C         18.42093         3.54430         0.48590
C         19.66627         1.41835         0.23061
C         19.65805         4.22586         0.55967
C         18.39835         6.44111         0.71037
C         18.40653         7.79607         0.06605
C         19.73259         5.70764         0.88043
C         19.67533         8.53073         0.03537
C         18.38055        10.69389        -0.13500
C         18.44879        12.14274        -0.21462
C         19.67044         9.95790        -0.42059
C         19.62787        12.84541        -0.10684
C         18.47558        15.03606        -0.29137
C         18.47668        16.43557        -0.10602
C         19.67228        14.29011        -0.19698
C         19.68642        17.13439        -0.09914
C         18.42202        19.28125         0.03428
C         19.69108        18.59537        -0.03028
C         20.89642         2.10089         0.27985
C         20.88312         3.53931         0.39517
C         22.14232         1.41476         0.23592
C         22.13807         4.24461         0.38876
C         20.84949         6.35255         0.06415
C         20.87577         7.85383         0.19441
C         22.15885         5.67570         0.38868
C         22.09864         8.55595         0.30701
C         20.90855        10.68398         0.01919
C         20.85107        12.13389         0.39625
C         22.09427         9.98686         0.26139
C         22.14401        12.85408         0.12890
C         20.91015        14.98388        -0.10194
C         20.92512        16.41003        -0.16677
C         22.15112        14.25203        -0.03000
C         22.16015        17.10444        -0.22105
C         20.88458        19.27646        -0.10893
C         22.16878        18.58884        -0.48073
C         23.37045         2.09434         0.33444
C         23.36552         3.54175         0.41501
C         24.61291         1.40906         0.35827
C         24.58821         4.25697         0.52498
C         23.33219         6.38065         0.58977
C         23.26872         7.85268         0.92674
C         24.58360         5.68326         0.68246
C         24.56382         8.59490         0.76561
C         23.34191        10.70671         0.41760
C         23.35457        12.12196         0.24961
C         24.57017         9.97868         0.58809
C         24.60253        12.82129         0.19022
C         23.39573        14.95087        -0.13320
C         23.39494        16.40040        -0.20974
C         24.60188        14.21845        -0.07968
C         24.61191        17.12518        -0.14353
C         23.41876        19.25605         0.02013
C         24.62036        18.55576         0.05345
C         25.84151         2.08936         0.49897
C         25.82928         3.54752         0.58881
C         27.06811         1.39229         0.53027
C         27.01963         4.25880         0.73707
C         25.79569         6.39287         0.84548
C         25.79952         7.86423         1.21194
C         27.02697         5.69388         0.80620
C         27.07817         8.58461         0.86120
C         25.82359        10.71887         0.61447
C         25.81786        12.09855         0.41856
C         27.07905         9.98813         0.74594
C         27.06190        12.91581         0.65594
C         25.86943        14.90873        -0.37707
C         25.88752        16.42465        -0.32521
C         27.16518        14.12260        -0.28071
C         27.15058        17.10939         0.01617
C         25.88653        19.22008         0.22482
C         27.11120        18.54612         0.21362
C         28.31254         2.04584         0.77850
C         28.27054         3.51391         0.99641
C         29.52662         1.38652         0.81533
C         29.55977         4.27389         0.94887
C         28.25925         6.42113         0.75533
C         28.28601         7.83659         0.74438
C         29.48775         5.65590         0.34464
C         29.53973         8.53500         0.57602
C         28.32187        10.69491         0.66141
C         28.34499        12.11706         0.57967
C         29.55796         9.95407         0.59547
C         29.53808        12.83110         0.48326
C         28.36751        14.96639         0.11686
C         28.32913        16.38753         0.18804
C         29.55580        14.25798         0.34355
C         29.55224        17.10263         0.72958
C         28.35507        19.25127         0.30444
C         29.57823        18.57760         0.39535
C         30.81191         2.08155         1.20981
C         30.81895         3.53297         0.79717
C         32.03773         1.36832         0.72587
C         31.98541         4.21775         0.50364
C         30.78811         6.39563         0.46781
C         30.77523         7.81758         0.46929
C         31.98646         5.67617         0.40768
C         32.01045         8.51693         0.36289
C         30.79809        10.64133         0.49860
C         30.85153        12.13367         0.71564
C         32.00599         9.94523         0.34862
C         31.96116        12.77888        -0.10385
C         30.82916        14.97020         0.33831
C         30.84500        16.38936         0.41392
C         32.02519        14.26243         0.16359
C         32.05689        17.09126         0.32581
C         30.81550        19.24284         0.33233
C         32.05956        18.54847         0.31598
C         33.21169         2.05539         0.41350
C         33.23110         3.50532         0.38350
C         34.43125         1.36026         0.16507
C         34.44391         4.20490         0.22170
C         33.23453         6.37235         0.31004
C         33.23985         7.79400         0.27742
C         34.46449         5.64896         0.21902
C         34.48175         8.49924         0.17120
C         33.26248        10.65867         0.20217
C         33.27079        12.05636         0.08853
C         34.48877         9.92238         0.14145
C         34.48732        12.78122         0.02812
C         33.26866        14.94282         0.13777
C         33.29459        16.38197         0.20719
C         34.47508        14.20035         0.05746
C         34.52666        17.09080         0.10253
C         33.27876        19.22767         0.21045
C         34.52363        18.53755         0.09908
C         35.64812         2.04757         0.01410
C         35.66989         3.48696         0.06668
C         36.87353         1.34519        -0.16652
C         36.90285         4.18500        -0.03641
C         35.69424         6.34502         0.11141
C         35.71076         7.77807         0.08577
C         36.93353         5.62326         0.01103
C         36.94520         8.47735        -0.04873
C         35.72102        10.62236        -0.00951
C         35.72904        12.04258        -0.04088
C         36.95361         9.90413        -0.13204
C         36.94749        12.71869        -0.27537
C         35.77932        14.91102         0.27486
C         35.76303        16.39339        -0.00850
C         36.91299        14.18337        -0.40136
C         36.97500        17.07782        -0.18530
C         35.74000        19.22358        -0.01230
C         36.98115        18.53438        -0.19196
C         38.08844         2.02322        -0.26256
C         38.11664         3.45916        -0.18956
C         39.33151         1.31180        -0.42205
C         39.35901         4.15281        -0.25349
C         38.16430         6.31343        -0.05029
C         38.18815         7.75962        -0.07820
C         39.39690         5.57933        -0.15908
C         39.40468         8.45918        -0.17135
C         38.17134        10.60373        -0.36038
C         38.15504        12.02514        -0.49438
C         39.42092         9.87637        -0.38668
C         39.40167        12.76038        -0.63385
C         38.21291        14.91230        -0.50256
C         38.23552        16.37674        -0.29462
C         39.44952        14.12826        -0.48510
C         39.44485        17.03811        -0.42704
C         38.17876        19.21531        -0.36696
C         39.43051        18.50502        -0.79437
C         40.52077         1.97800        -0.47714
C         40.57427         3.41341        -0.38067
C         41.79628         4.10427        -0.38618
C         40.64870         6.24662        -0.16515
C         40.71278         7.74126         0.07679
C         41.82607         5.49538        -0.26246
C         41.86210         8.43082        -0.60721
C         40.63352        10.54274        -0.67458
C         40.63761        12.00658        -1.07009
C         41.81826         9.76506        -0.87675
C         41.90704        12.76274        -0.73326
C         40.70235        14.84482        -0.03085
C         40.70785        16.33352        -0.36915
C         41.93987        14.05821        -0.38934
C         41.87184        17.06488        -0.33928
C         40.70963        19.21083        -0.45413
C         41.85798        18.50770        -0.32492
O         28.91583         4.02472         2.24209
O         17.65428         7.86106        -1.22977
O         13.00734        12.47853        -2.29204
O          7.71830         8.17590        -2.49875
O         37.34738        14.64885        -1.70595
O          6.89202        13.76640        -2.27123
O          6.42664        17.04180        -1.57260
O         25.86699        15.67945        -1.62456
O         17.64690         6.29928         1.97014
O         17.32779        13.55896        -1.85893
O         29.31764         5.38913        -1.10038
H         29.34956         6.25175        -1.56650
O          8.78161         5.85842        -2.81487
H          8.26449         6.52141        -3.33076
O          8.66106        12.10847        -2.96240
H          8.17370        12.90085        -3.29333
O         15.75169        10.96791         1.60950
H         15.72289        10.05987         2.00891
O         36.07695        14.77864         1.71188
H         35.32029        15.15736         2.20778
O         22.98338         7.85324         2.40234
H         22.18992         7.28570         2.54008
O         31.20207        12.34152         2.11842
H         30.48727        11.95853         2.66870
O         11.98947         4.37105         1.69539
H         12.75223         4.86398         2.06784
O         20.14004         5.85171         2.26434
H         19.32932         5.72459         2.80977
O         40.57254        11.99175        -2.53978
H         40.34239        12.89853        -2.83500
O         20.54551         6.06783        -1.32812
H         21.16213         6.58158        -1.89027
O         26.94929        13.45185         2.00722
H         26.85019        12.69864         2.62637
O         25.74077         7.88689         2.69288
H         24.79181         7.74357         2.93663
O         22.24899        18.71721        -1.97085
H         23.05818        18.23855        -2.25487
O         27.43358        13.59355        -1.59995
H         27.18484        14.29586        -2.24294
O          3.49904        16.42616         2.85628
H          2.98628        16.72296         3.63625
O          2.82636        16.74635        -0.73296
H          3.39514        16.58427        -1.51532
O          4.57935         4.11130        -2.54024
H          5.31183         4.60688        -2.96598
O         19.72453         9.86577        -1.90238
H         18.99813         9.24956        -2.16042
O         31.59741        12.61070        -1.50643
H         32.29161        13.03494        -2.05269
O         17.10402        16.95048         1.72751
H         16.32989        17.46818         2.03642
O         40.62869        14.82488         1.43775
H         40.58775        13.88746         1.72232
O         15.80200         8.21643         1.93608
H         16.47619         7.62117         2.35692
O         20.70097        12.12848         1.87569
H         21.50332        11.70222         2.24786
O         30.86295         2.08019         2.69105
H         30.15218         2.70425         2.98090
O         39.36636        18.51051        -2.28483
H         38.57731        17.98308        -2.53734
O         40.97302         7.87888         1.53033
H         41.00225         8.83945         1.72683
O          4.73682         8.38247        -2.33760
H          3.91622         8.84145        -2.61258
O          6.33628         7.90315         0.92337
H          5.58805         7.45678         1.37361
O         29.41345        17.03680         2.19446
H         30.17525        17.51887         2.58042
H          0.56261         1.36923         0.77781
H          0.50289         3.83117         0.76105
H          2.62728         0.14724         0.08591
H          0.40595         5.71793         0.52907
H          0.39589         8.14047         0.65620
H          0.42368        10.01456         0.79378
H          0.45605        12.41760         1.12587
H          0.41544        14.30887         1.27818
H          0.55403        16.61263         2.08025
H          1.81117        18.82879         2.11427
H          4.97101         0.17959        -0.59878
H          3.71681        20.17475         1.30625
H          7.42923         0.21979        -0.67033
H          6.18481        20.21558         0.89957
H          9.88503         0.26312        -0.49837
H          8.62157        20.26025         0.56842
H         12.31255         0.31024        -0.14982
H         11.02696        20.29153         0.30107
H         14.74864         0.32126        -0.04607
H         13.46671        20.33493         0.17196
H         17.21074         0.32616         0.07212
H         15.93540        20.37968         0.01929
H         19.65904         0.32273         0.12922
H         18.42796        20.38184        -0.01086
H         22.14060         0.31735         0.15324
H         20.88634        20.37701        -0.07951
H         24.61598         0.31063         0.28928
H         23.42662        20.35191         0.12034
H         27.06184         0.29875         0.40653
H         25.88239        20.31263         0.35462
H         29.55136         0.29807         0.65164
H         28.34385        20.35022         0.23822
H         32.05142         0.26778         0.75686
H         30.82551        20.33771         0.21479
H         34.42784         0.26002         0.15558
H         33.28148        20.32796         0.19117
H         36.85762         0.24604        -0.21349
H         35.74317        20.32382        -0.00179
H         39.30310         0.21434        -0.48864
H         38.17239        20.31602        -0.39887
H         41.46463         1.42425        -0.58814
H         42.73769         3.54197        -0.46675
H         42.80319         5.99619        -0.22852
H         42.79379         7.87786        -0.79062
H         42.70450        10.25408        -1.30630
H         42.86131        12.24461        -0.91803
H         42.91737        14.53732        -0.22176
H         42.84231        16.56242        -0.22337
H         40.70945        20.30958        -0.40430
H         42.80987        19.02846        -0.14445
