         324
 CSIRO Nanostructure Databank - Neutral Graphene Oxide Data Set
C          1.19466         4.11602         1.91861
C          0.03755         4.83547         1.80162
C          1.15848         6.74632         0.74265
C          0.01099         6.12316         1.16432
C          1.15517         8.01479         0.01982
C         -0.02407         8.85086         0.00392
C          1.01952        10.54392        -1.46464
C         -0.07337        10.06786        -0.60779
C          1.07632        12.00783        -1.97530
C         -0.16372        12.81314        -1.66767
C          1.11935        14.67709        -0.60965
C         -0.14294        14.05150        -1.15966
C          1.01308        16.20493        -0.41781
C          0.12007        16.75661         0.52125
C          1.26048        18.93190         0.43386
C          0.18171        18.11325         0.84431
C          1.38305        20.31652         0.85340
C          0.38286        21.01450         1.49412
C          1.65927        23.12236         1.60423
C          0.51144        22.39048         1.83442
C          1.77087        24.53587         1.96281
C          0.69790        25.19727         2.62299
C          2.06743        27.16658         2.99975
C          0.84385        26.47038         3.13629
C          2.27629        28.43306         3.63638
C          3.58559         3.89012         1.38857
C          2.44746         4.65363         1.45253
C          3.53520         6.36485         0.00479
C          2.50288         6.13120         1.10315
C          3.59395         7.82460        -0.38258
C          2.34049         8.51198        -0.54120
C          3.62146        10.43761        -1.62093
C          2.31780         9.74261        -1.36159
C          3.63622        11.99414        -1.72751
C          2.35760        12.72599        -1.56184
C          3.65225        14.76071        -1.28518
C          2.36793        14.06724        -1.27352
C          3.73181        16.12384        -1.53968
C          1.92435        17.12024        -0.96894
C          3.53690        19.05882        -0.71182
C          2.25653        18.37541        -0.41593
C          3.66661        20.38035        -0.30014
C          2.68066        20.97893         0.62342
C          4.03813        23.22295         0.62316
C          2.84928        22.41474         1.08229
C          4.12989        24.64290         1.04577
C          2.96714        25.25126         1.74875
C          4.35634        27.27686         2.05989
C          3.11794        26.56896         2.24697
C          4.55570        28.50179         2.76722
C          3.49120        29.05331         3.56084
C          6.06284         3.75771         1.13121
C          4.85723         4.43210         0.94019
C          6.06905         6.38070         0.08882
C          4.86868         5.74830         0.37338
C          6.07485         7.87598        -0.07843
C          4.79884         8.45159        -0.65130
C          6.07781        10.48179        -1.19865
C          4.85368         9.78906        -1.16080
C          6.08093        11.90559        -1.25090
C          4.89529        12.63881        -1.32630
C          6.08610        14.80650        -1.03783
C          4.89255        14.06517        -1.14519
C          6.09490        16.23071        -1.11983
C          4.85796        16.93714        -1.28308
C          5.99592        19.08008        -1.18016
C          4.76208        18.36327        -1.14816
C          6.01995        20.51088        -1.16484
C          4.78810        21.22042        -0.79807
C          6.16377        23.46774        -0.80696
C          4.90837        22.72210        -0.49082
C          6.17697        24.96970        -0.56559
C          5.11463        25.55746         0.36640
C          6.53292        27.54050         0.99461
C          5.35494        26.81479         1.14828
C          6.79105        28.70670         1.79627
C          5.78574        29.16792         2.67131
C          8.54253         3.69328         0.94042
C          7.30498         4.35381         0.76576
C          8.53817         6.28716        -0.15729
C          7.31023         5.69076         0.25074
C          8.51025         7.59445        -0.82725
C          7.31224         8.42723        -0.72202
C          8.60877        10.45665        -1.22897
C          7.33808         9.75928        -1.06189
C          8.62004        11.87160        -1.17013
C          7.34778        12.58641        -0.90952
C          8.63542        14.83072        -0.88174
C          7.34145        14.08643        -0.75731
C          8.58203        16.27666        -1.22396
C          7.31044        16.96216        -1.18071
C          8.43222        19.10582        -1.57465
C          7.24372        18.37592        -1.31808
C          8.42258        20.50878        -1.62929
C          7.20143        21.23370        -1.37669
C          8.36859        23.26670        -1.98240
C          7.20643        22.69951        -1.37651
C          8.42825        25.55103        -1.60602
C          7.40239        25.84515        -0.74478
C          8.67014        28.09299        -0.29675
C          7.46092        27.20120        -0.10342
C          9.02309        29.07458         0.77053
C          8.03736        29.37995         1.73806
C         10.99534         3.65293         0.88415
C          9.76355         4.30380         0.59658
C         11.01483         6.26588        -0.34261
C          9.76712         5.62292         0.00118
C         11.09587         7.59845        -0.75531
C          9.84960         8.29323        -1.12255
C         11.07563        10.45347        -1.17566
C          9.83918         9.75848        -1.19464
C         11.05845        11.85834        -1.32262
C          9.83884        12.56417        -1.26833
C         11.04097        14.75790        -1.79907
C          9.87525        14.04905        -1.18009
C         11.01014        16.24303        -1.86290
C          9.73127        16.94430        -1.57095
C         10.99398        19.11252        -2.04446
C          9.66638        18.37048        -1.90119
C         10.93768        20.57302        -1.82887
C          9.66511        21.20250        -1.81299
C         10.83861        23.30170        -2.26299
C          9.61209        22.59740        -2.06067
C         10.88877        25.63141        -2.11030
C          9.73171        26.19993        -1.60009
C         11.16029        28.25561        -1.10889
C          9.81140        27.58140        -1.12398
C         11.23219        29.59622        -0.35835
C         10.29177        29.62881         0.82615
C         13.44551         3.62473         0.93140
C         12.22942         4.21777         0.54257
C         13.59676         6.18804        -0.41932
C         12.25422         5.47611        -0.23079
C         13.59463         7.66576        -0.59323
C         12.34328         8.33823        -0.79623
C         13.55334        10.50161        -0.84580
C         12.33645         9.74779        -0.98344
C         13.56801        11.91719        -0.99800
C         12.34514        12.57348        -1.48826
C         13.55040        14.84138        -1.32471
C         12.36344        14.05403        -1.72075
C         13.52159        16.25533        -1.41405
C         12.29259        16.99273        -1.74887
C         13.50562        19.16158        -1.79169
C         12.26062        18.36344        -1.83319
C         13.41822        20.66164        -1.69675
C         12.10273        21.35288        -1.70973
C         13.33235        23.61622        -1.82976
C         12.06610        22.77821        -1.84506
C         13.40614        25.16088        -1.93076
C         12.21992        26.09646        -1.80526
C         13.65793        27.98271        -1.04071
C         12.35728        27.38729        -1.29091
C         13.73339        29.35256        -0.51691
C         12.63812        30.01421        -0.05437
C         15.91396         3.49835         1.22818
C         14.69040         4.27112         0.77253
C         16.06362         6.20794        -0.01165
C         14.77697         5.53389         0.17854
C         16.08662         7.70192        -0.40055
C         14.78841         8.39819        -0.51327
C         15.98673        10.58680        -0.38851
C         14.78977         9.83131        -0.56847
C         15.95674        12.01402        -0.46211
C         14.73223        12.68847        -0.79486
C         15.86623        14.89121        -0.52194
C         14.71689        14.14151        -0.90668
C         15.85082        16.32080        -0.60412
C         14.70778        16.98111        -1.11618
C         15.89835        19.22335        -0.78082
C         14.76348        18.43436        -1.38796
C         15.70269        20.68699        -0.47387
C         14.48804        21.41324        -0.96469
C         15.75261        23.63465        -0.68681
C         14.47844        22.93103        -1.07007
C         15.95373        25.05113        -1.15175
C         14.76016        25.83622        -1.66313
C         16.11209        27.98998        -1.32473
C         14.80517        27.29389        -1.37048
C         16.14160        29.42230        -0.97239
C         15.02666        30.01946        -0.49552
C         18.41924         3.71743         1.82142
C         17.14152         4.36047         1.45982
C         18.55677         6.29854         0.54376
C         17.21994         5.70140         0.78067
C         18.57087         7.80503         0.11962
C         17.28832         8.49392        -0.09122
C         18.43971        10.64094         0.14280
C         17.23909         9.89310        -0.08569
C         18.47063        12.11561        -0.17694
C         17.12701        12.79503        -0.20210
C         18.20652        14.96581         0.33726
C         17.06878        14.19653        -0.13588
C         18.11439        16.37919         0.47887
C         16.96007        17.09271        -0.05429
C         17.89683        19.29114         0.72386
C         16.90530        18.48199        -0.00550
C         18.00651        20.74775         0.45402
C         16.91891        21.45690        -0.10230
C         18.12335        23.54812         0.18326
C         16.95930        22.86250        -0.23488
C         18.19767        25.03303         0.13847
C         17.09723        25.79395        -0.51871
C         18.48735        27.91935        -0.27564
C         17.35768        27.20712        -0.93966
C         18.52064        29.32929        -0.27848
C         17.47982        30.11348        -1.05341
C         19.58654         4.41640         1.81735
C         20.85702         6.51207         1.35511
C         19.69474         5.75354         1.28201
C         20.87147         7.88148         1.01098
C         19.74630         8.56390         0.54568
C         20.78985        10.80339         0.82175
C         19.65712        10.00743         0.48729
C         20.69363        12.18604         0.93843
C         19.52385        12.87143         0.58934
C         20.44322        15.03724         1.34351
C         19.39441        14.29001         0.75499
C         20.34520        16.40702         1.48442
C         19.19643        17.09616         1.05322
C         20.35125        19.35031         1.40805
C         19.11934        18.55863         1.26369
C         20.34528        20.69649         1.28024
C         19.17362        21.43910         0.85771
C         20.32762        23.61541         1.30412
C         19.21457        22.85405         0.74409
C         20.48840        24.93544         1.09655
C         19.57732        25.67988         0.15370
C         20.54121        27.88706         1.01128
C         19.51452        27.18654         0.36081
C         20.55180        29.28276         1.03845
C         19.55510        30.00311         0.38149
O          7.28497        13.22735         0.42399
O         17.10550        27.55358        -2.32203
O         10.27571        28.41001        -2.26331
O          4.24014        22.25944        -1.70534
O         14.56031        20.93574         0.42179
O         18.02437        18.96629         2.15123
O         13.73318        20.02725        -2.96758
O          8.29534        24.52523        -2.54047
O          7.47072        28.33348        -1.08059
O         12.55612        13.13979        -2.84847
O         13.55016        24.29039        -3.09419
O          3.31691        21.31325         1.92923
O         17.16228        25.68421         0.94313
O          2.61621        16.73161        -2.11540
O         10.76576        24.51191        -2.92196
O         10.23504        18.69429        -3.22114
O         16.87762         5.60262         2.20548
O         10.83592        15.40437        -3.08508
O         18.84176         6.70336        -0.80888
O         15.90897        18.86050        -2.19800
O         16.31029         6.62040        -1.37694
O          4.84153        23.59814         1.80327
O          3.72818        11.11716        -2.90057
O          9.60323        14.54053         0.18477
O         14.62570        23.54141         0.25444
O         15.80235        25.32500        -2.55827
O          9.09552         7.61028        -2.17463
O          1.42493         9.60747        -2.51302
O          4.95611        25.65558        -1.07154
O         12.98811         5.40710        -1.49894
O         18.92412        12.18056        -1.59708
H         19.78890        11.71801        -1.64154
O         17.89434        30.21248        -2.42429
H         17.82450        29.30874        -2.81338
O          1.12697        11.96159        -3.41753
H          1.80591        11.28558        -3.65886
O         10.73615        30.65131        -1.23334
H         10.17061        30.20780        -1.91308
O          6.10748         8.39197         1.30624
H          5.31008         8.04627         1.76598
O          3.05327         5.64775        -1.16343
H          3.67596         5.80678        -1.90295
O         16.22829         2.49829         0.24249
H         16.15902         2.90086        -0.64790
O         20.09086        25.47719        -1.19820
H         20.97307        25.89947        -1.25873
O          2.99227         6.84665         2.27739
H          2.36810         6.67332         3.01324
O          1.25886        14.15944         0.75791
H          0.48974        14.46474         1.28335
H          1.17624         3.09462         2.32712
H         -0.91485         4.40083         2.13603
H         -0.97369         6.57092         0.96716
H         -0.88999         8.53693         0.60435
H         -0.94107        10.72492        -0.44706
H         -1.11356        12.39601        -2.03749
H         -1.08589        14.60857        -1.03874
H         -0.66437        16.13317         0.97722
H         -0.58132        18.52679         1.51703
H         -0.57573        20.52458         1.71329
H         -0.37070        22.87284         2.27528
H         -0.25860        24.67969         2.77012
H          0.01476        26.94103         3.68369
H          1.45532        28.87515         4.21894
H          3.55615         2.84170         1.72489
H          3.66577        30.00662         4.08016
H          6.06370         2.75651         1.58741
H          5.95366        30.08878         3.24841
H          8.55536         2.67890         1.36633
H          8.23763        30.18196         2.46324
H         10.97558         2.69162         1.41900
H         10.50809        30.35305         1.62657
H         13.42025         2.64649         1.43334
H         12.76256        31.02974         0.35084
H         15.67248         2.94787         2.17447
H         15.05726        31.06813        -0.16347
H         18.39919         2.66365         2.13284
H         17.40381        31.15268        -0.64755
H         20.51073         3.93776         2.17474
H         21.75326         6.07912         1.82257
H         21.78736         8.44085         1.24383
H         21.74109        10.32270         1.08026
H         21.56386        12.72672         1.33352
H         21.35033        14.53790         1.70479
H         21.16972        16.95047         1.96341
H         21.30316        18.83790         1.60322
H         21.29126        21.23935         1.40819
H         21.03913        23.09200         1.95758
H         21.34722        25.44685         1.55318
H         21.35749        27.34751         1.50955
H         21.36117        29.81115         1.56038
H         19.57644        31.10204         0.37765
