         661
 CSIRO Nanostructure Databank - Neutral Graphene Oxide Data Set
C          5.90452        31.74742         0.36930
C          5.92246        33.06628         0.09061
C          8.41537        27.48183         0.49011
C          8.33697        28.85019         0.67853
C          7.14019        29.60585         0.46809
C          8.36432        31.72094         0.79072
C          7.13978        30.98906         0.56694
C          8.27371        33.22844         0.87963
C          7.24777        33.75789        -0.12270
C          8.35971        35.98215         0.05280
C          7.20070        35.26524        -0.11902
C          8.38510        37.41342        -0.20148
C         10.92644        23.22770         0.14088
C         10.89660        24.62951         0.36814
C          9.69012        25.36852         0.29882
C         10.86915        27.42247         0.90188
C          9.65438        26.74844         0.58777
C         10.82986        28.84288         1.27793
C          9.52117        29.59195         1.16413
C         10.82538        31.77263         1.08659
C          9.56191        31.06401         1.02501
C         10.81161        33.17288         0.91612
C          9.61141        33.91965         0.73273
C         10.83174        36.03601         0.30812
C          9.60575        35.30032         0.42050
C         10.79338        37.29691        -0.30105
C          9.57021        38.08158        -0.39415
C         10.42142        40.46390        -0.14788
C          9.66241        39.51574        -0.78501
C         10.73129        41.81091        -0.57343
C         13.27641        18.91128        -0.31661
C         13.25440        20.24887         0.24808
C         12.15537        21.06544         0.02912
C         13.28016        23.15638         0.75755
C         12.10342        22.47869         0.33533
C         13.31813        24.57477         0.86534
C         12.11542        25.31668         0.68322
C         13.33359        27.40093         1.22310
C         12.11024        26.72548         0.91028
C         13.31047        28.84649         1.51157
C         12.08052        29.62425         1.26940
C         13.36222        31.70466         1.16105
C         12.08220        31.01386         1.20358
C         13.35773        33.22002         1.21045
C         12.10549        33.89976         0.60355
C         13.34943        36.09567         0.96303
C         12.00566        35.37363         1.04769
C         13.48226        37.47081         1.09791
C         12.37902        38.32516         1.61350
C         13.23168        40.33063         0.36447
C         12.22323        39.65756         1.02373
C         13.19270        41.73538        -0.01144
C         11.95386        42.45499        -0.32118
C         13.20043        44.62279        -0.40135
C         12.04610        43.86639        -0.59953
C         13.23175        46.03767        -0.50158
C         15.85519        14.67279        -0.67621
C         15.71602        15.97673        -0.15625
C         14.52139        16.68008        -0.46964
C         15.87591        18.80389         1.04822
C         14.10554        17.89232         0.14805
C         15.78893        20.20293         0.89346
C         14.43611        20.84966         0.95916
C         15.75310        23.04473         1.17489
C         14.46394        22.35912         1.09649
C         15.74001        24.47684         1.46993
C         14.52381        25.26444         1.21065
C         15.84072        27.39286         1.36971
C         14.55580        26.68089         1.30827
C         15.88084        28.83379         1.34555
C         14.64074        29.60433         1.56026
C         15.85409        31.78874         1.20893
C         14.58388        31.06088         1.28614
C         15.88748        33.13886         0.98177
C         14.60842        33.83353         0.56076
C         15.88738        36.08787         0.64321
C         14.59812        35.32206         0.89508
C         15.79516        37.48606         0.21861
C         14.63210        38.15759         0.52023
C         15.70249        40.31071        -0.33817
C         14.45654        39.56059         0.06067
C         15.67696        41.76881        -0.16606
C         14.42247        42.42847        -0.09513
C         15.71782        44.59444        -0.19421
C         14.42053        43.92148         0.15334
C         15.74369        46.05295        -0.57810
C         14.42937        46.78319        -0.40684
C         15.71007        48.91240        -0.39910
C         14.47141        48.18139        -0.38031
C         15.74088        50.32352        -0.64397
C         18.37130        10.43856        -1.53497
C         17.86423        11.49161        -0.82239
C         16.89844        12.53173        -1.09661
C         18.32531        14.51787        -0.24539
C         16.99319        13.82593        -0.56103
C         18.20105        15.84436         0.49542
C         16.89622        16.57550         0.56797
C         18.20965        18.76758         0.49369
C         17.00026        18.05833         0.73184
C         18.19585        20.19629         0.47960
C         16.96950        20.90612         0.65943
C         18.27708        23.03516         0.84235
C         16.94315        22.40731         0.51969
C         18.34737        24.43383         1.34553
C         17.07570        25.22571         1.56038
C         18.32890        27.41204         1.34575
C         17.05091        26.67937         1.35443
C         18.31857        28.85715         1.07538
C         17.09546        29.53890         1.20776
C         18.32871        31.66525         0.70463
C         17.14893        31.03490         1.47562
C         18.41524        33.12049         1.04316
C         17.16756        33.86856         0.71454
C         18.33766        36.19078         0.24033
C         17.13677        35.32429         0.35901
C         18.26494        37.43998        -0.38030
C         16.91904        38.09914        -0.62539
C         18.15600        40.31758        -0.34912
C         16.99048        39.59825        -0.36736
C         18.14707        41.75534        -0.19794
C         16.91114        42.45895        -0.11698
C         18.18853        44.62414        -0.20027
C         16.90576        43.90975        -0.15307
C         18.20274        45.99678        -0.17334
C         16.91494        46.75744         0.09953
C         18.16028        48.91276        -0.42915
C         16.93825        48.22591        -0.26127
C         18.17703        50.31626        -0.73576
C         16.92929        51.01637        -0.81252
C         18.21448        53.23717        -1.05024
C         16.88549        52.46117        -1.28724
C         18.30300        54.58610        -1.81128
C         20.81003         6.11086        -1.83774
C         20.70310         7.44064        -1.21602
C         19.58185         8.33602        -1.50136
C         20.73156        10.26817        -0.47042
C         19.53028         9.64499        -1.06827
C         20.79312        11.64251        -0.05450
C         19.58375        12.37719         0.27743
C         20.78880        14.44934         0.66312
C         19.49449        13.73604         0.31380
C         20.69259        15.95395         0.57693
C         19.49199        16.61924         0.52322
C         20.62052        18.79871         0.10610
C         19.45489        18.06903         0.37502
C         20.61216        20.22102        -0.01583
C         19.41266        20.92152         0.23849
C         20.65322        23.10721         0.14448
C         19.41748        22.35478         0.48621
C         20.92697        24.45019         0.79973
C         19.65820        25.16375         1.27177
C         20.84325        27.40319         0.80486
C         19.65826        26.67229         1.31040
C         20.81256        28.81918         0.83575
C         19.58187        29.53872         0.97075
C         20.85736        31.63601         1.10883
C         19.62676        30.94638         0.97966
C         20.85748        32.98688         1.80538
C         19.51472        33.65281         1.62196
C         20.76753        35.65117         0.15889
C         19.55715        35.67927         0.78961
C         20.71942        37.58205        -0.70596
C         19.45245        38.18773        -0.60478
C         20.68634        40.32498        -0.17337
C         19.45613        39.67864        -0.77301
C         20.63746        41.70403         0.02587
C         19.39423        42.44584        -0.11251
C         20.66370        44.54533         0.07099
C         19.42275        43.86009        -0.08942
C         20.73965        45.94258        -0.16275
C         19.47658        46.77088         0.00372
C         20.43625        48.83846        -1.16161
C         19.37167        48.16452        -0.59636
C         20.63088        50.25111        -1.10655
C         19.41691        50.97536        -0.98440
C         20.79529        53.04812        -1.44736
C         19.43580        52.38926        -1.35245
C         20.84230        54.52404        -1.42394
C         19.62553        55.29411        -1.58438
C         20.89641        57.40215        -1.55006
C         19.66159        56.67384        -1.58988
C         20.95616        58.78226        -1.59834
C         23.38840         3.37263        -1.82169
C         22.25451         4.08472        -2.20700
C         23.22300         6.31087        -1.78864
C         22.04890         5.49170        -1.95944
C         23.28552         7.51348        -1.11089
C         22.00012         8.14047        -0.74410
C         23.22484        10.27749        -0.50730
C         21.97525         9.59483        -0.57638
C         23.22614        11.69456        -0.37216
C         21.99541        12.36085        -0.14305
C         23.25226        14.53810         0.03349
C         21.92569        13.88071        -0.19964
C         23.29220        15.93042         0.62236
C         21.97110        16.69060         0.61519
C         23.10442        18.74945        -0.51714
C         21.93621        18.14078         0.24376
C         23.07106        20.25870        -0.41787
C         21.87550        20.91262        -0.28040
C         23.15219        23.12138        -0.45741
C         21.85750        22.38800        -0.38940
C         23.11545        24.59434        -0.52127
C         21.88214        25.30697        -0.01180
C         23.16999        27.43960        -0.02540
C         21.97632        26.73744         0.31150
C         23.18804        28.83390         0.23581
C         22.02638        29.53889         0.62032
C         23.30805        31.69650         0.77370
C         22.06589        30.95065         0.89661
C         23.32742        33.13916         0.99954
C         22.14205        33.92150         1.57311
C         23.15002        35.95949         0.45621
C         22.03645        35.20330         0.69755
C         23.19243        37.33595        -0.28244
C         21.92357        38.17906        -0.28347
C         23.09024        40.20657         0.47455
C         21.90904        39.56994         0.00034
C         23.00913        41.61970         0.84852
C         21.82671        42.41552         0.43271
C         23.02541        44.55819         1.02055
C         21.85263        43.79771         0.42533
C         23.16107        45.93160         0.42707
C         22.03798        46.53791        -0.17708
C         23.30507        48.65534        -0.53864
C         22.28359        47.77705        -0.83756
C         23.22146        50.10972        -0.77653
C         21.95411        50.85854        -1.03966
C         23.20363        53.01149        -0.82114
C         22.01076        52.27577        -1.09197
C         23.26905        54.41049        -0.99195
C         22.06931        55.15141        -1.30620
C         23.35580        57.28572        -1.05646
C         22.17213        56.60558        -1.68976
C         23.41244        58.77455        -1.11867
C         22.20249        59.50271        -1.56515
C         23.59365        61.49954        -1.79261
C         22.32207        60.84916        -1.84812
C         24.58957         3.86056        -1.24577
C         25.86728         6.01277        -0.64197
C         24.99997         5.20346        -1.38239
C         25.78119         7.45117        -0.66574
C         24.53578         8.17265        -0.83666
C         25.69889        10.31053        -0.41906
C         24.48740         9.57624        -0.56865
C         25.68787        11.73004        -0.39838
C         24.46629        12.42521        -0.38406
C         25.72645        14.61349        -0.31512
C         24.42035        13.86643        -0.17300
C         25.70089        16.06661         0.11126
C         24.46957        16.74313         0.12035
C         25.64468        18.82499        -0.35198
C         24.43958        18.12353        -0.14656
C         25.63289        20.24973        -0.75162
C         24.31399        20.98817        -0.76416
C         25.61256        23.17292        -0.73270
C         24.34526        22.45955        -0.59921
C         25.59591        24.57293        -0.80145
C         24.38497        25.34001        -0.61501
C         25.53621        27.56524        -0.93754
C         24.35932        26.72795        -0.46820
C         25.69321        28.85098        -0.15631
C         24.46483        29.55843         0.27649
C         25.62177        31.77028        -0.13205
C         24.45243        31.02678         0.36177
C         25.63735        33.24552         0.13417
C         24.45923        33.87111         0.76470
C         25.65572        35.93505         0.03359
C         24.49780        35.38906         0.90248
C         25.69106        37.44706         0.08083
C         24.39797        38.14010         0.17961
C         25.58387        40.23005         0.80115
C         24.33903        39.49324         0.52569
C         25.57141        41.62580         0.93032
C         24.33311        42.36373         1.09724
C         25.53053        44.52521         1.02311
C         24.34422        43.83257         0.95428
C         25.56710        45.98060         0.91112
C         24.36615        46.64535         0.48251
C         25.64116        48.73331         0.24508
C         24.43741        48.04223         0.12560
C         25.72188        50.07745        -0.42121
C         24.38919        50.80032        -0.52627
C         25.71768        52.92257        -0.78242
C         24.40633        52.27978        -0.25893
C         25.76940        54.40568        -0.41151
C         24.52709        55.13094        -0.86684
C         25.87548        57.21344        -0.99640
C         24.60891        56.50446        -0.99433
C         25.88830        58.64763        -1.12745
C         24.74025        59.41456        -1.22230
C         24.75617        60.82133        -1.50761
C         26.93069         8.19136        -0.29438
C         28.15118        10.30254         0.04589
C         26.94542         9.59510        -0.24458
C         28.22075        11.69987         0.03612
C         27.01553        12.47505        -0.46049
C         28.17702        14.57238         0.43077
C         26.87563        13.78944         0.33274
C         28.17100        16.07333         0.28975
C         26.90171        16.78669         0.05694
C         28.14381        18.90042        -0.31883
C         26.89316        18.18030        -0.15458
C         28.11364        20.27949        -0.55511
C         26.88743        21.03011        -0.63628
C         28.14305        23.16106        -0.75153
C         26.87082        22.43166        -0.73242
C         28.14855        24.60595        -0.84908
C         26.86402        25.29460        -1.04295
C         28.12158        27.48296        -0.67795
C         26.86055        26.80749        -1.03912
C         28.11404        28.89824        -0.40384
C         26.94798        29.60809        -0.34025
C         28.12354        31.75862         0.28313
C         26.96511        31.10967        -0.45089
C         28.13038        33.09571         0.55933
C         26.94841        33.90608         0.35249
C         28.13570        35.99735         0.86386
C         26.95696        35.27226         0.45143
C         28.13911        37.36161         0.95416
C         26.95858        38.15127         0.52636
C         28.01540        40.26288         1.30657
C         26.84289        39.55950         0.89934
C         28.03533        41.65362         1.30296
C         26.85475        42.38376         0.72452
C         27.93547        44.49583         1.52655
C         26.79217        43.82683         1.13568
C         27.90627        45.99638         1.75049
C         26.75876        46.66823         1.04022
C         28.07600        48.72242         0.64695
C         26.84108        48.06955         0.68874
C         28.12319        50.23170         0.64425
C         26.89936        50.90010         0.04665
C         28.23125        52.92717        -0.39363
C         26.95459        52.21511        -0.28235
C         28.23275        54.32220        -0.74178
C         27.06850        55.06818        -0.81755
C         27.06526        56.47890        -1.00501
C         29.41676        12.42316         0.22286
C         30.63419        14.60519         0.21122
C         29.46097        13.85128         0.24192
C         30.65428        16.04919         0.14579
C         29.43127        16.77617         0.04821
C         30.64476        18.86087        -0.21153
C         29.41008        18.17651        -0.19730
C         30.68483        20.29495        -0.53475
C         29.37343        21.01031        -0.75137
C         30.64472        23.15351        -0.91363
C         29.34847        22.47510        -0.71017
C         30.62430        24.66018        -1.01111
C         29.32799        25.34925        -0.88102
C         30.59863        27.50601        -0.67197
C         29.32876        26.78469        -0.73707
C         30.64094        28.87510        -0.42171
C         29.39202        29.55512        -0.04072
C         30.64156        31.76660         0.35618
C         29.38492        30.98827         0.38824
C         30.65868        33.09242         0.76281
C         29.36528        33.75555         1.06415
C         30.65398        35.98898         1.25334
C         29.36155        35.24824         1.24814
C         30.64967        37.36633         1.47895
C         29.31404        38.03518         1.56739
C         30.49268        40.26190         1.87635
C         29.22729        39.52233         1.73213
C         30.42488        41.66136         1.98010
C         29.19395        42.38474         1.72624
C         30.24428        44.55766         2.53050
C         29.13437        43.78239         1.85649
C         30.31772        45.98508         2.02028
C         29.26326        46.63732         1.47251
C         30.64283        48.76169         0.87305
C         29.35492        47.90886         0.62305
C         30.56510        50.09540         0.17033
C         29.40952        50.81083         0.08658
C         29.40122        52.18928        -0.33832
C         31.87216        16.77036         0.10933
C         33.11448        18.92665        -0.05214
C         31.88711        18.17793        -0.01857
C         33.15801        20.33189        -0.10482
C         31.85358        21.08812         0.01381
C         33.08680        23.21934        -0.40681
C         31.91555        22.50891        -0.49891
C         33.12660        24.68189        -0.55027
C         31.87703        25.40501        -0.78187
C         33.14619        27.51413        -0.95599
C         31.84019        26.78007        -0.78561
C         33.05851        29.00060        -0.72644
C         31.87724        29.62978        -0.43957
C         33.13010        31.58899         0.47124
C         31.86040        31.14908        -0.27341
C         33.14310        33.09684         0.77131
C         31.87157        33.86097         0.85673
C         33.10519        36.05098         1.08589
C         31.88774        35.26959         1.08800
C         33.14081        37.41702         1.45383
C         31.86458        38.11315         1.69769
C         32.79669        40.32868         2.48844
C         31.72275        39.51679         2.01368
C         32.79383        41.70071         2.51135
C         31.60939        42.45236         2.23984
C         33.60073        44.79213         1.53923
C         31.56584        43.83307         2.38675
C         33.38900        45.97700         0.83445
C         32.30130        46.88563         1.10699
C         31.88147        47.99253         0.43114
C         34.34478        21.07657        -0.10988
C         35.50034        23.23634         0.13589
C         34.34674        22.51699        -0.10722
C         35.47283        24.71676         0.37879
C         34.26097        25.38350        -0.21258
C         35.56926        27.56086        -0.33362
C         34.24036        26.89199        -0.07439
C         35.58626        29.05952        -0.31993
C         34.33906        29.76188        -0.98914
C         35.23259        32.05849        -0.82005
C         34.25730        31.17173        -0.44537
C         35.52274        33.28756        -0.19046
C         34.37870        33.89828         0.53479
C         35.65776        35.94552         0.68371
C         34.28367        35.39799         0.37673
C         35.70394        37.39599         1.00271
C         34.44280        38.11710         1.35981
C         35.81491        40.21761         1.43470
C         34.73452        39.34840         1.91981
C         35.74658        41.64818         1.35787
C         34.80633        42.59826         1.82691
C         34.64583        43.86802         1.23994
C         36.74666        25.44615         0.04284
C         38.05289        27.54358        -0.18070
C         36.78051        26.83026        -0.19263
C         38.13612        28.92077        -0.33936
C         36.93906        29.65255        -0.69876
C         38.21871        31.78051        -0.67626
C         37.11021        30.96121        -1.09349
C         38.07758        33.14606        -0.39548
C         36.81858        33.89570        -0.21951
C         38.10032        36.01311         0.14669
C         36.86745        35.25727         0.17143
C         38.06257        37.45591         0.26001
C         36.93362        38.15352         0.67093
C         36.88910        39.57065         0.79388
C         39.38834        29.65540        -0.30659
C         40.66577        31.81737        -0.31380
C         39.44090        31.03312        -0.41085
C         40.59837        33.15396        -0.13677
C         39.29460        33.82880         0.21542
C         39.29083        35.31949         0.01267
O         14.15881        21.42242         2.26317
O         32.73758        44.52849         2.64563
O         26.90365        26.07660        -2.30836
O         19.22327        24.56783         2.53009
O         25.36616        28.83388         1.27047
O         23.13146        58.04930         0.16056
O         20.79932        36.23259        -1.13115
O         17.12293        34.32564        -0.74373
O         30.72537        23.82552        -2.22205
O         22.04645        25.08270        -1.42919
O         21.15941         7.41528         0.19622
O         33.97872        42.31697         2.93330
O         31.56175        46.56930         2.27396
O         15.45968        35.75903         2.00119
O          9.99502        29.11506         2.47030
O         21.39800        48.10647        -1.85408
O         24.36601         5.88248        -2.45728
O         16.37778        24.81294         2.77490
O         14.70607        18.12971         1.40178
O         29.37411        29.91578         1.41366
O         20.84182        22.96173        -1.29657
O         24.92613        20.53353        -2.01280
O         26.62449        37.97942        -0.92888
O         10.93796        40.15234         1.14484
O         29.21526        34.34048         2.39675
O         13.95411        29.20313         2.79029
O         11.61275        37.95543         2.51696
O         28.99312        38.61302         2.88197
O         20.06286        52.58339        -2.66585
O         14.78325        39.76009        -1.37782
O         30.23925        20.56170        -1.88745
O         36.13051        31.64608        -1.81141
O         25.29253        32.73071        -1.20467
O         18.42015        11.63304         0.46137
O         28.19222        15.40036         1.63731
O         33.96673        39.76733         2.99761
O         35.89237        36.36341         2.06490
O         19.44817        34.99883         2.02423
O         22.09731        17.75495         1.65179
O         17.41569        15.80588         1.72000
O         23.47662        41.91264         2.21804
O         22.88777        18.47108        -1.88248
O         19.16135        27.16433         2.58081
O         34.09348        33.39486         1.87525
O         25.94057        14.76509        -1.70027
O         29.93014        44.60825         3.97127
H         30.69866        45.02239         4.42079
O         22.69962        44.70672         2.44510
H         22.82779        43.81582         2.84881
O         11.59702        35.33092         2.43893
H         11.52105        36.27200         2.76118
O         18.06393        31.50981        -0.71383
H         17.91153        32.39730        -1.10677
O         23.43019        37.04688        -1.69336
H         22.67150        36.50077        -2.00174
O         16.72460        46.69042         1.53667
H         17.56508        47.01097         1.94308
O         30.68516        49.08756         2.28797
H         31.05852        48.30441         2.75760
O         18.77884        14.88775        -1.59689
H         19.73431        14.64835        -1.70618
O         27.33741        12.70926        -1.84089
H         26.76675        13.47628        -2.15937
O         29.47760        47.45121        -0.76053
H         28.64847        46.98861        -1.00609
O          7.76289        33.55087         2.20624
H          8.41763        33.23803         2.86516
O         33.91144        27.17021         1.32516
H         34.44768        26.53026         1.86383
O         23.60551        15.68977         2.03336
H         23.28805        16.47911         2.52915
O         12.15572        33.93857        -0.83874
H         12.33116        33.03527        -1.17481
O         35.32687        24.88763         1.87670
H         34.74499        24.16215         2.19209
O         35.47373        29.40947         1.10374
H         34.72315        28.87862         1.47685
O         24.77832        35.80071         2.25002
H         24.06047        35.42396         2.81991
O         26.07101        49.79314        -1.84791
H         25.37656        49.19428        -2.20086
O         25.77658        54.51022         1.05449
H         25.74733        55.46362         1.28417
O         14.30424        44.04770         1.61812
H         13.42532        43.69422         1.87327
O         21.69331        24.14921         2.00132
H         21.04249        24.02793         2.73400
O         21.10263        14.11127         2.03529
H         20.41800        14.50626         2.61452
O         28.13649        50.54920         2.07796
H         28.98062        50.18257         2.44019
O         21.54323        14.19586        -1.58494
H         22.35286        14.21632        -2.14045
O         27.64708        46.20903         3.17407
H         28.27903        45.64231         3.68017
O         25.42276        35.52679        -1.32879
H         25.75453        36.24258        -1.91323
O         25.69657        52.83395        -2.22406
H         25.87123        51.89419        -2.46175
O         25.19085        28.00598        -2.27830
H         25.45544        27.27877        -2.88956
O         31.97632        31.72709        -1.61784
H         31.14033        31.54614        -2.09858
O         17.46781        31.18454         2.88438
H         16.72660        30.81170         3.40839
O         34.54644        29.77640        -2.41460
H         33.97824        30.47840        -2.79482
O         19.50952        47.09200         1.47267
H         19.94709        46.34244         1.93417
O         34.08562        35.66388        -1.04808
H         33.18510        35.36442        -1.29486
O         22.48690        56.59765        -3.12585
H         21.76968        56.11214        -3.58610
O         19.54065        39.93947        -2.21928
H         18.80260        39.45029        -2.64431
O         11.87425        37.83809        -0.92566
H         12.57886        37.16740        -1.03419
O         39.15910        33.64982         1.67730
H         39.09576        32.68578         1.84875
O         22.52986        34.42937         2.86725
H         22.19068        33.79944         3.54829
O         13.45515        33.49775         2.62379
H         12.71325        34.09031         2.90566
O         26.48243        13.42174         1.65862
H         26.72971        14.16567         2.25489
O         16.74650        22.69600        -0.93335
H         17.51527        22.31179        -1.41069
O         18.30040        53.52660         0.36438
H         17.48626        53.99408         0.64493
O         16.03365        46.09961        -2.00933
H         15.27887        45.69589        -2.48661
O         33.59327        27.26820        -2.31538
H         32.96791        27.69863        -2.93383
O         16.59810        37.89816        -2.02704
H         15.81082        38.47006        -2.21214
O         20.93094        32.60434         3.21845
H         20.12075        32.09570         3.44080
O         24.31523        52.34685         1.18953
H         24.75106        53.18173         1.49317
O         27.27639        31.35101        -1.85904
H         26.64789        32.05650        -2.16033
O         33.17741        30.87767         1.71451
H         33.76627        31.38839         2.31494
O          7.71482        33.38553        -1.45727
H          7.03688        33.66985        -2.10482
O         18.16586        54.38678        -3.23207
H         18.90716        53.78313        -3.49510
O         31.56420        21.19756         1.45082
H         32.38426        21.49146         1.90068
O         27.08904        42.42066        -0.74934
H         27.12219        41.48849        -1.05708
O         14.55451        33.67500        -0.87491
H         15.45733        33.89381        -1.22319
O         16.51627        52.40813        -2.66255
H         16.85666        53.21735        -3.12024
H          4.95072        31.20178         0.43703
H          4.98610        33.62090        -0.07721
H          7.51405        26.92920         0.18523
H          6.21158        29.07348         0.21359
H          6.29388        35.77394        -0.48621
H          7.42525        37.94217        -0.29517
H         10.00203        22.71539        -0.16529
H          8.75467        24.84647         0.04791
H          9.14876        39.80976        -1.71516
H          9.96264        42.37420        -1.12722
H         12.62813        18.71912        -1.18587
H         11.26373        20.62706        -0.44538
H         11.13361        44.37578        -0.94800
H         12.27847        46.57687        -0.62895
H         14.96129        14.23376        -1.15065
H         13.88581        16.25626        -1.26407
H         13.52736        48.74922        -0.38708
H         14.78620        50.85755        -0.76416
H         17.93010        10.15545        -2.50275
H         15.98686        12.27526        -1.66302
H         16.08108        53.01554        -0.70434
H         17.45922        55.24945        -1.48915
H         19.88938         5.57946        -2.12462
H         18.76556         7.94699        -2.12877
H         18.71784        57.23927        -1.63870
H         20.02170        59.36002        -1.67991
H         23.28757         2.27501        -1.84762
H         21.37584         3.49886        -2.51818
H         23.63893        62.57368        -2.02189
H         21.43733        61.43117        -2.14400
H         25.20647         3.16105        -0.66298
H         26.62544         5.55419         0.01046
H         26.86789        59.14357        -1.20896
H         25.72133        61.34827        -1.52624
H         27.86682         7.64523        -0.10438
H         29.05383         9.71664         0.28420
H         29.20278        54.81362        -0.91691
H         28.02446        57.00289        -1.13619
H         30.36116        11.86863         0.34984
H         31.60142        14.08143         0.15412
H         31.51332        50.56571        -0.13626
H         30.36242        52.66633        -0.58446
H         32.82460        16.22535         0.18589
H         34.06313        18.36817        -0.03281
H         34.05440        46.20538        -0.00969
H         32.39290        48.30412        -0.48997
H         35.31197        20.55284        -0.06393
H         36.44138        22.69848         0.33007
H         36.49612        42.07819         0.67100
H         35.30551        44.13219         0.40045
H         37.69672        24.91007         0.19326
H         38.96700        26.95870         0.00158
H         38.99807        38.00857         0.08590
H         37.73588        40.16668         0.42252
H         40.31610        29.09535        -0.11310
H         41.63395        31.30665        -0.42617
H         41.52042        33.75160        -0.07267
H         40.24919        35.86083        -0.01176
