         294
 CSIRO Nanostructure Databank - Neutral Graphene Oxide Data Set
C          1.18656         2.30997         0.17768
C          1.11139         3.55734        -0.42681
C          2.40575         1.69418         0.42937
C          2.28265         4.20797        -1.10504
C          1.50954         6.41277        -0.16798
C          1.53694         7.85310        -0.16375
C          2.48016         5.67902        -0.78385
C          2.43593         8.53570        -0.91112
C          1.14981        10.70462        -0.42710
C          1.16141        11.82034         0.31361
C          2.36788        10.04758        -1.04585
C          2.38872        12.48517         0.89737
C          1.47356        14.62443         1.94065
C          1.41070        15.92434         2.36976
C          2.30133        14.05097         0.78404
C          2.11248        17.01379         1.74722
C          2.55630        18.23403         2.29947
C          3.66870         2.48351         0.27198
C          3.60714         3.45510        -0.91471
C          4.89953         1.62597         0.26408
C          4.88575         4.12481        -1.31838
C          3.67911         6.31331        -1.32967
C          3.59836         7.82936        -1.60137
C          4.83298         5.61522        -1.61341
C          4.88724         8.47941        -1.13266
C          3.66739        10.67273        -0.51339
C          3.68461        11.93628         0.28654
C          4.87104         9.78199        -0.45099
C          4.97763        12.46405         0.87604
C          3.68468        14.70080         0.78982
C          3.74627        16.08120         0.69813
C          4.93808        13.96316         1.05743
C          4.88541        16.89299         0.92313
C          3.71441        18.89279         1.86655
C          4.85335        18.28094         1.22998
C          6.06912         2.10088        -0.22036
C          6.14594         3.39690        -0.90175
C          7.25812         1.16680        -0.38824
C          7.31355         3.64448        -1.56217
C          6.04626         6.48820        -2.07849
C          6.08356         7.79610        -1.28530
C          7.37059         5.76457        -2.03383
C          7.33400         8.43734        -1.07779
C          6.19431        10.40696        -0.08729
C          6.27551        11.80542         0.46245
C          7.41492         9.80853        -0.67396
C          7.50982        12.61344         0.18734
C          6.21619        14.74672         0.94579
C          6.16950        16.22421         0.55328
C          7.48925        14.08677         0.50076
C          7.43222        16.95601         1.03993
C          6.06506        19.04091         1.09110
C          7.32748        18.45798         0.84818
C          8.58604         1.90625        -0.34543
C          8.64287         3.12624        -1.20360
C          9.59378         1.55167         0.46939
C          9.86770         4.03085        -1.20452
C          8.56822         6.26473        -1.58324
C          8.56292         7.78482        -1.66098
C          9.83868         5.53997        -1.42139
C          9.78138         8.44968        -1.04617
C          8.53198        10.59708        -0.97140
C          8.41691        12.11935        -0.94413
C          9.79666         9.93132        -1.49478
C          9.75348        12.87989        -0.98179
C          8.56058        14.98727        -0.00416
C          8.58463        16.31543         0.29623
C          9.73490        14.41817        -0.76181
C          9.80460        17.15274        -0.03293
C          8.52227        19.18656         0.75577
C          9.79976        18.54969         0.57234
C         10.76188         2.47268         0.74301
C         11.09341         3.39289        -0.47713
C         12.02981         1.68747         1.14677
C         12.13219         4.43102        -0.03599
C         11.03712         6.24912        -1.33842
C         11.08056         7.71019        -1.27292
C         12.35932         5.48280        -1.14563
C         12.23542         8.42836        -1.11034
C         10.94656        10.63173        -0.84622
C         11.03619        12.08660        -0.92806
C         12.17581         9.85048        -0.53398
C         12.28838        12.75998        -0.36789
C         10.97776        14.89471        -0.03034
C         11.01539        16.32184         0.46704
C         12.24598        14.28648        -0.57827
C         12.31382        17.08340         0.26520
C         10.99743        19.22133         0.68500
C         12.34386        18.52063         0.75901
C         13.32136         2.47147         0.98832
C         13.40144         3.69760         0.39493
C         14.52615         1.82302         1.47009
C         14.77037         4.23871         0.01028
C         13.53255         6.37364        -0.72094
C         13.59174         7.74368        -1.37001
C         14.76047         5.74323        -0.13332
C         14.74821         8.48755        -0.73275
C         13.46214        10.59431        -1.01327
C         13.61023        12.09286        -0.76383
C         14.52078         9.76028        -0.37694
C         14.81856        12.76463        -0.85756
C         13.37369        14.96725         0.19050
C         13.48582        16.43225         0.05359
C         14.96293        14.20659        -1.26547
C         14.83648        17.07943         0.31698
C         13.56265        19.23534         0.22148
C         14.78022        18.58614         0.10025
C         15.74854         2.44368         1.48306
C         15.91835         3.75392         0.88591
C         16.91544         1.76726         2.17722
C         17.09722         4.47559         0.97362
C         16.07597         6.43554        -0.08272
C         16.08055         7.85028        -0.51654
C         17.17842         5.84413         0.47416
C         17.35444         8.63854        -0.38006
C         16.32318        10.91710        -0.16541
C         16.16514        12.18243        -0.73584
C         17.44886        10.12322        -0.39819
C         17.38835        12.90085        -0.95709
C         16.09028        14.99246        -0.69910
C         16.00764        16.50751        -0.58126
C         17.29260        14.36584        -0.96928
C         17.34644        17.13552        -0.08826
C         15.99403        19.26798        -0.22422
C         17.26563        18.63679        -0.33954
C         18.22281         2.40652         1.78220
C         18.23685         3.92423         1.83266
C         19.29563         1.65733         1.43442
C         19.66561         4.54567         1.60149
C         18.44053         6.64851         0.81928
C         18.60090         7.94357         0.04163
C         19.67227         5.75154         0.62633
C         19.78756         8.50940        -0.32523
C         18.64649        10.77323        -0.71870
C         18.63213        12.21160        -0.78180
C         19.81655         9.87124        -0.96970
C         19.84460        12.95187        -0.38456
C         18.43083        15.22641        -1.23237
C         18.52483        16.49721        -0.78701
C         20.28679        14.14530        -0.88095
C         19.84810        17.18365        -0.85849
C         18.43205        19.33371        -0.61895
C         19.75908        18.69362        -0.74152
C         20.55783         2.24722         1.05808
C         20.73270         3.59578         1.08066
C         21.99358         4.21541         0.69968
C         21.01937         6.53926         0.72145
C         21.09224         7.70462        -0.31748
C         22.15227         5.54728         0.53836
C         22.40737         8.45521        -0.16534
C         21.76074        10.64548         0.79803
C         21.72555        12.05831         0.60953
C         22.71546         9.70820         0.27085
C         22.71510        12.99721         0.32620
C         21.33628        14.99146        -0.35155
C         21.10238        16.51885        -0.22237
C         22.47683        14.40376         0.17848
C         22.31608        17.36017        -0.52433
C         20.98706        19.40722        -0.40329
C         22.21894        18.74113        -0.48503
O         20.01431        17.94016        -2.05649
O         13.77318         6.44097         0.72022
O          4.17854         3.12724        -2.20274
O          7.20643        14.35356         1.92623
O          7.40889        11.82481         1.39578
O          3.86311        11.97693        -1.17035
O         16.95226         8.08340        -1.70320
O         20.77259        10.22217        -1.66180
O         20.40304        12.54390         0.87104
O          5.91375         6.90301        -3.43556
O         13.95632        14.40538         1.14150
O          4.90206        13.02416         2.21119
O          9.55359         3.17226        -2.35839
O          7.31233         4.51520        -2.64232
O          2.53363        16.77357         0.43149
O         14.49034        14.62221        -2.32798
O         10.49781        12.60472        -2.22849
O          5.46571         9.59427         0.89095
O         15.30003        10.37854         0.60151
O         19.52472        14.68347        -1.94079
O         15.79275        17.00978        -1.91730
H         15.17412        16.39274        -2.38093
O         12.25765        14.58611        -1.99472
H         12.41021        13.76127        -2.50527
O         18.30134         7.04563         2.20348
H         18.34330         6.23326         2.76474
O          7.70589        12.48989        -2.15385
H          8.35226        12.49042        -2.89370
O         19.55888         5.16266        -0.68314
H         19.97758         5.76679        -1.34394
O          6.19938        16.20209        -0.90858
H          6.11035        17.12374        -1.23081
O          2.39809        12.11844         2.29300
H          3.26168        12.41598         2.67614
O          9.57457         8.42830         0.38853
H         10.40189         8.74548         0.82258
O         13.78539         7.61733        -2.79301
H         13.30955         6.81345        -3.10495
O          7.19447         0.13336         0.58141
H          7.81999        -0.57426         0.32845
O          9.63381        14.94973        -2.12562
H         10.52019        14.78538        -2.53594
O         12.55059        18.40571         2.20911
H         11.88966        17.73672         2.52378
O         17.86286         4.31950         3.19861
H         16.89985         4.16570         3.30614
O         15.04962         3.71971        -1.32729
H         15.05594         2.74116        -1.27170
O          1.63627        14.34363        -0.45970
H          1.65793        15.32136        -0.57604
O         12.73655         4.89210        -2.40518
H         12.52876         3.92541        -2.37301
O         20.68292        10.12898         1.40570
H         20.06565        10.87698         1.60308
O         20.83572        16.67440         1.21298
H         21.62123        16.35954         1.70765
O          9.92374        10.03708        -2.92739
H         10.15814        10.97300        -3.12872
O         21.16402         7.11843        -1.64702
H         21.13224         7.85688        -2.29467
O         13.55402        10.49955        -2.45210
H         13.62164         9.55504        -2.73527
O          1.92169         4.18832        -2.51262
H          2.72580         3.88230        -3.00208
O         11.56591         5.14800         1.07710
H         12.25141         5.78281         1.39857
O          7.60494        16.83781         2.46710
H          7.72184        15.87825         2.67570
O         11.75719         2.53699        -1.44984
H         11.05894         2.31259        -2.12256
O          8.45169         8.08563        -3.07295
H          7.58709         7.70248        -3.40517
O         10.35671         3.19614         1.91961
H          9.76086         3.93126         1.66787
O         12.19575        12.48285         1.06169
H         12.93789        12.98216         1.49428
O          3.74056         3.39325         1.42955
H          3.81722         2.84312         2.23742
O         12.14522         0.49936         0.35060
H         12.19917         0.80023        -0.58584
O         15.07558        16.82624         1.72099
H         14.87154        15.87259         1.88607
O         20.14618         4.98651         2.89517
H         19.96593         4.27328         3.54373
O         10.85395        16.29788         1.94590
H         11.20390        15.43971         2.26839
O          3.52885         8.02039        -3.02502
H          4.36754         7.61849        -3.41425
O         12.27432         9.68988         0.92009
H         12.21152        10.60000         1.30836
O         21.15965         7.21278         1.97991
H         20.95304         6.56491         2.69444
O          9.91538        17.44730        -1.43432
H          9.69813        16.62104        -1.94268
O          2.29940        10.34581        -2.45314
H          2.58018        11.28173        -2.56239
O         16.90321         0.36306         1.92903
H         16.90260         0.21843         0.96110
O         17.59562        16.91283         1.31124
H         16.78231        17.16134         1.81874
H          0.25454         1.79015         0.44857
H          0.12078         3.99059        -0.62835
H          2.44331         0.67854         0.85066
H          0.64006         5.91176         0.28052
H          0.73631         8.38896         0.36748
H          0.17838        10.31597        -0.77182
H          0.20104        12.26584         0.61811
H          0.93560        13.87792         2.54828
H          0.86653        16.13815         3.30417
H          1.99237        18.67612         3.13631
H          4.84967         0.60308         0.66584
H          3.88446        19.90572         2.26681
H          7.16008         0.71130        -1.42340
H          6.00134        20.13633         1.19884
H          9.46479         0.68931         1.14245
H          8.48993        20.28560         0.84833
H         11.91749         1.36001         2.21072
H         10.98473        20.26774         1.03511
H         14.43219         0.82325         1.91886
H         13.50269        20.31725         0.02259
H         16.78433         1.89279         3.29058
H         15.94196        20.35742        -0.38564
H         19.20117         0.56100         1.42906
H         18.39676        20.43404        -0.68511
H         21.37312         1.58755         0.72710
H         22.84951         3.54307         0.52706
H         23.14643         5.93873         0.27441
H         23.24866         7.89365        -0.60526
H         23.73994        10.07722         0.10597
H         23.76224        12.65688         0.34106
H         23.32809        15.05851         0.43146
H         23.30531        16.88685        -0.60329
H         20.95155        20.48931        -0.21192
H         23.14379        19.33878        -0.48684
