         349
 CSIRO Nanostructure Databank - Neutral Graphene Oxide Data Set
C          1.36461         2.12870        -0.67254
C          1.31184         3.47045        -0.38316
C          2.53963         1.38456        -0.44382
C          2.41035         4.12462         0.41506
C          1.22637         6.36353         0.54616
C          1.25053         7.66245         0.90571
C          2.49932         5.64299         0.17008
C          2.49118         8.42230         0.97523
C          1.21127        10.67114         1.15346
C          1.20490        12.02839         1.13111
C          2.44600         9.86808         1.31683
C          2.40345        12.83903         1.18841
C          1.17024        15.02771         1.04124
C          1.14175        16.36364         0.83661
C          2.38666        14.22432         1.00932
C          2.33143        17.19559         0.42558
C          2.49533        18.43310         1.32871
C          3.75502         2.04439        -0.09119
C          3.74641         3.44079         0.21597
C          4.97712         1.33803        -0.14331
C          4.97356         4.13742         0.35810
C          3.69746         6.25438         0.92612
C          3.70594         7.77624         0.86282
C          4.99501         5.58361         0.53186
C          4.97398         8.48773         0.81447
C          3.74912        10.62026         1.34877
C          3.69490        12.12304         1.34949
C          4.99999         9.93858         0.91377
C          4.95443        12.86086         1.01717
C          3.62663        14.94837         0.77156
C          3.59604        16.35901         0.42727
C          4.83624        14.28739         0.69732
C          4.77023        16.97959         0.07143
C          3.56958        19.25604         1.43805
C          4.83517        19.05353         0.73518
C          6.20798         2.01496        -0.01113
C          6.19218         3.42757         0.20853
C          7.44557         1.31805        -0.11238
C          7.47677         4.12996         0.31414
C          6.16094         6.32228         0.45164
C          6.14197         7.76609         0.53693
C          7.48184         5.62922         0.44280
C          7.41122         8.46987         0.25892
C          6.13971        10.67057         0.59231
C          6.16278        12.12410         0.55411
C          7.39654         9.96863         0.24755
C          7.24912        12.82703         0.09197
C          6.14782        15.00407         0.70171
C          6.06961        16.45433         0.32345
C          7.19463        14.31065        -0.16316
C          7.23655        17.19366         0.41515
C          6.10812        19.34890         1.13051
C          7.30152        18.63660         0.63711
C          8.68087         2.00703        -0.20457
C          8.69552         3.42973        -0.12179
C          9.90622         1.31742        -0.41739
C          9.85495         4.16925        -0.48605
C          8.76336         6.40549         0.11048
C          8.38605         7.71198        -0.63417
C          9.79730         5.57191        -0.62151
C          9.62748         8.52026        -1.07321
C          8.45504        10.68774        -0.52951
C          8.44658        12.17555        -0.47575
C          9.74129         9.98271        -0.80381
C          9.71153        12.91657        -0.53956
C          8.52127        14.99578         0.05365
C          8.49185        16.39382         0.50978
C          9.72454        14.30453        -0.21674
C          9.80676        17.14410         0.50254
C          8.53008        19.28384         0.63985
C          9.78429        18.62026         0.39986
C         11.10816         2.02225        -0.60147
C         11.09216         3.45240        -0.71391
C         12.35955         1.34894        -0.73684
C         12.30492         4.14587        -0.89937
C         10.92203         6.27243        -1.23398
C         10.89003         7.76540        -1.36802
C         12.27711         5.57020        -1.26071
C         12.21062         8.48049        -1.49188
C         10.89554        10.68917        -1.00191
C         11.00818        12.13489        -0.50765
C         12.17235        10.03477        -1.40950
C         12.13691        12.93030        -1.16797
C         10.96818        15.04676        -0.25361
C         11.00752        16.41647         0.04762
C         12.12668        14.41293        -0.94156
C         12.21142        17.15087        -0.00890
C         10.96774        19.28603         0.15415
C         12.22328        18.57656         0.01561
C         13.54511         2.04605        -0.88435
C         13.54843         3.47354        -0.93394
C         14.82112         1.28176        -1.11558
C         14.78171         4.23585        -0.97743
C         13.52161         6.36669        -1.14582
C         13.46388         7.76596        -1.20969
C         14.75120         5.65531        -1.00237
C         14.71993         8.54458        -1.41483
C         13.43004        10.75334        -1.22495
C         13.44697        12.21246        -1.38136
C         14.69020        10.01414        -1.10073
C         14.76378        12.96778        -1.38824
C         13.37974        15.26904        -1.13394
C         13.46618        16.33622        -0.00832
C         14.72380        14.48187        -1.27844
C         14.71154        17.15733        -0.11619
C         13.43776        19.25925        -0.13226
C         14.69405        18.55986        -0.21974
C         16.06324         2.09601        -0.85565
C         16.02222         3.52300        -0.86697
C         17.25693         1.41739        -0.68922
C         17.26360         4.25422        -0.77500
C         16.01713         6.45003        -0.75508
C         16.03638         7.83160        -1.42189
C         17.27601         5.64440        -0.92474
C         17.35794         8.66452        -1.46695
C         15.98060        10.76530        -0.83386
C         16.01837        12.25218        -0.97771
C         17.27788        10.04557        -0.85417
C         17.20415        12.90520        -0.74590
C         16.02209        15.16714        -0.98034
C         15.99504        16.40623        -0.04819
C         17.35262        14.39357        -1.01214
C         17.21260        17.23433        -0.24983
C         15.90936        19.29078        -0.36077
C         17.18289        18.63860        -0.39020
C         18.48914         2.11392        -0.48721
C         18.49262         3.53906        -0.54151
C         19.68554         1.41506        -0.24251
C         19.70232         4.24937        -0.25601
C         18.55831         6.35752        -0.88792
C         18.60204         7.85859        -1.04654
C         19.73226         5.66469        -0.33426
C         19.74803         8.57688        -0.42873
C         18.46089        10.72283        -0.56062
C         18.43852        12.18800        -0.44253
C         19.68747         9.99262        -0.36455
C         19.59637        12.90144        -0.14957
C         18.46117        15.04726        -0.21699
C         18.47391        16.52370         0.10202
C         19.62778        14.34944        -0.02424
C         19.70134        17.15100        -0.49495
C         18.41082        19.36609        -0.42222
C         19.68620        18.70765        -0.65728
C         20.89603         2.09919         0.02439
C         20.89329         3.53602         0.06748
C         22.10074         1.39823         0.24022
C         22.07439         4.25106         0.41690
C         20.89503         6.39509         0.02003
C         20.87044         7.83949         0.01724
C         22.03975         5.66942         0.47341
C         21.99564         8.55424         0.67435
C         20.98174        10.74255        -0.19387
C         20.80961        12.17545         0.25795
C         21.99564        10.04694         0.69283
C         22.09745        12.93251         0.51239
C         20.90832        15.06956         0.11739
C         20.95995        16.45911        -0.18860
C         22.12425        14.37578         0.24746
C         22.17766        17.14423        -0.32046
C         20.98909        19.33299        -0.54882
C         22.18427        18.58808        -0.51450
C         23.30708         2.08611         0.50821
C         23.29725         3.51437         0.63985
C         24.52933         1.37580         0.65312
C         24.52105         4.17638         0.92305
C         23.21411         6.39059         0.99676
C         23.28909         7.85414         0.84193
C         24.51032         5.63161         1.20512
C         24.50125         8.50855         0.86863
C         23.29543        10.78086         0.89460
C         23.36799        12.19248         0.49742
C         24.58847         9.98997         0.92302
C         24.58648        12.83255         0.30288
C         23.37890        15.01600         0.05202
C         23.40151        16.42117        -0.19926
C         24.61075        14.26516         0.06220
C         24.64629        17.09246        -0.36655
C         23.43881        19.23599        -0.58859
C         24.65358        18.51488        -0.56357
C         25.73306         2.04424         0.88940
C         25.72163         3.46486         1.01154
C         26.98555         1.32559         1.02487
C         26.97537         4.18058         1.45477
C         25.77311         6.38780         1.09900
C         25.75847         7.78380         0.91850
C         26.99705         5.64561         1.06922
C         26.98712         8.51635         0.80821
C         25.83477        10.67718         0.53488
C         25.82731        12.07051         0.28915
C         27.04283         9.90196         0.54249
C         27.04106        12.74987        -0.05708
C         25.83949        14.91336        -0.18871
C         25.86258        16.35276        -0.38154
C         27.04752        14.12811        -0.27980
C         27.06785        17.05554        -0.62373
C         25.89023        19.17298        -0.78991
C         27.07856        18.45152        -0.84768
C         28.18933         1.98014         1.09697
C         28.23896         3.43828         1.08841
C         29.46169         1.27068         1.14384
C         29.40958         4.08840         0.84469
C         28.20080         6.30814         0.94963
C         28.23152         7.77318         1.04514
C         29.44695         5.56292         0.71712
C         29.56773         8.50942         0.96091
C         28.31924        10.54902         0.28787
C         28.30532        11.93833        -0.33548
C         29.52072         9.90114         0.47415
C         29.52408        12.73197         0.10285
C         28.30664        14.81956        -0.67503
C         28.32888        16.30763        -0.78987
C         29.65763        14.12797        -0.48415
C         29.60726        17.05228        -0.62202
C         28.34333        19.12712        -1.33213
C         29.60645        18.43663        -0.87583
C         30.62958         1.90191         0.91440
C         30.68070         3.34371         0.48064
C         31.89549         4.07959         1.01737
C         30.78557         6.27311         0.75095
C         30.82738         7.74245         0.86947
C         31.95126         5.42050         1.09017
C         32.03412         8.47126         0.84937
C         30.84362        10.54857         0.09345
C         30.81119        12.04189         0.38856
C         32.04615         9.83296         0.64828
C         32.04454        12.86755         0.30284
C         30.68676        14.97146         0.33277
C         30.77813        16.40709        -0.16932
C         32.00000        14.20967         0.30085
C         31.94578        17.16629        -0.01351
C         30.79284        19.16846        -0.73373
C         31.95958        18.52961        -0.31695
O         12.21792         9.30200        -2.68995
O          4.70605        18.28780        -0.45002
O         14.16929        12.52807        -2.64830
O         15.33204         8.03684        -2.66448
O         15.16764        10.28168         0.31931
O          7.66599         4.82372         1.65362
O          9.26009        16.62905         1.75598
O          8.00774        11.40055        -1.72943
O         11.47127         5.72684        -2.48072
O         23.97114        10.51709         2.15562
O         15.48236        15.21419        -2.31436
O         29.91706        12.47856         1.48247
O         11.71744        13.80178        -2.23873
O         30.12541         5.94450        -0.56154
O          7.99563         9.21394         1.36721
O         28.25391        15.45171        -2.01317
O         21.21408        12.48793         1.61782
O         28.92622         8.26133         2.26864
O         19.59220        17.70992        -1.78126
O         21.51083         9.34659         1.85110
O         18.99048         7.01664        -2.18495
O         23.65258         5.96357         2.34707
O          3.16465        10.09884         2.58910
O          4.56791        12.63063         2.43234
O          9.97736         8.16775        -2.44730
O         13.17375        16.01132        -2.33854
H         12.91580        15.37051        -3.03771
O         30.21782        13.89849        -1.80276
H         29.80982        14.57636        -2.39849
O         16.00694         6.81225         0.68369
H         15.96435         5.98087         1.20287
O         30.22165        15.09983         1.69322
H         30.18205        14.18734         2.07470
O         28.37995        11.76312        -1.77596
H         29.10114        12.34555        -2.11911
O         30.98468        10.47826        -1.36445
H         30.99210         9.53228        -1.62244
O         17.86483        14.47166        -2.37543
H         17.08204        14.60371        -2.96534
O         14.83637         0.06160        -0.36510
H         14.83862         0.28732         0.58737
O          9.39721         6.79500         1.35316
H          9.13916         6.11828         2.02260
O         21.62246        10.79267        -1.51434
H         20.92974        10.95177        -2.19076
O         17.58323         9.00125        -2.86043
H         17.94376         8.19213        -3.29393
O         28.30975        19.13772        -2.77610
H         28.26308        18.20768        -3.08199
O         26.93349         4.18421         2.92147
H         26.11249         4.64705         3.19641
O          2.00803         3.93495         1.80575
H          2.05158         2.97551         2.00052
O         16.12379        15.78187         1.28912
H         15.20356        15.51936         1.56446
O          2.06584        17.67855        -0.91581
H          2.88030        18.15051        -1.20797
O         13.48581        15.55147         1.24710
H         13.03400        16.07675         1.94223
O          7.64866         7.34567        -1.81202
H          8.28063         7.39118        -2.57182
O         11.44454        12.01568         0.89162
H         10.70647        11.64227         1.41893
O         30.79561         3.33555        -0.97392
H         30.67052         4.27367        -1.26074
O          6.61999        14.95187         2.08308
H          6.09592        14.28344         2.57637
O          2.70288         5.80607        -1.25151
H          2.70533         6.76477        -1.45401
O          3.52920         5.94413         2.33586
H          4.22490         6.42024         2.83543
O          6.80656        14.48193        -1.55574
H          7.36198        13.88200        -2.10010
O         18.64583        16.65120         1.55038
H         17.81813        16.29617         1.95714
H          0.49315         1.62730        -1.11885
H          0.38609         4.03237        -0.57216
H          2.56353         0.31013        -0.67374
H          0.26475         5.83680         0.46288
H          0.30816         8.17496         1.14500
H          0.25493        10.14118         1.03985
H          0.24060        12.54046         1.00203
H          0.22822        14.52175         1.30077
H          0.17768        16.89081         0.90849
H          1.61707        18.68355         1.94733
H          4.96959         0.25831        -0.35187
H          3.52496        20.07799         2.17158
H          7.43290         0.22347        -0.21557
H          6.26285        20.05136         1.96442
H          9.91341         0.21778        -0.41818
H          8.55393        20.37048         0.81381
H         12.38541         0.24972        -0.70852
H         10.97740        20.38456         0.09352
H         14.83836         0.97741        -2.20109
H         13.44180        20.35851        -0.16185
H         17.25329         0.31798        -0.68383
H         15.86700        20.38736        -0.42390
H         19.67743         0.31501        -0.24087
H         18.39726        20.45184        -0.24942
H         22.10769         0.30031         0.17397
H         21.04086        20.42534        -0.42874
H         24.52185         0.27910         0.56772
H         23.47095        20.32577        -0.73572
H         26.95932         0.22587         1.00258
H         25.89697        20.25570        -0.98367
H         29.44367         0.19451         1.37453
H         28.35661        20.19766        -1.00719
H         31.57748         1.34331         0.94304
H         32.78216         3.48562         1.28850
H         32.86203         5.91402         1.46143
H         32.98668         7.94302         1.00858
H         33.00943        10.36159         0.64886
H         33.01642        12.35434         0.25495
H         32.94694        14.76786         0.26740
H         32.86473        16.70174         0.36801
H         30.79451        20.24767        -0.94237
H         32.88783        19.10506        -0.19642
