         424
 CSIRO Nanostructure Databank - Neutral Graphene Oxide Data Set
C          1.24884         2.12970         0.07586
C          1.23375         3.52682         0.18399
C          2.44708         1.43250         0.02624
C          2.43280         4.26591         0.23638
C          1.23028         6.48499         0.31254
C          1.19788         7.83622         0.47763
C          2.44718         5.71223         0.37654
C          2.38437         8.58670         0.90628
C          1.15356        10.77682         0.41725
C          1.13130        11.97527        -0.17153
C          2.41463        10.12877         0.93470
C          2.36588        12.74683        -0.54046
C          1.20832        14.88536         0.33632
C          1.24288        16.25441         0.57339
C          2.36759        14.20098        -0.07928
C          2.43492        16.99228         0.40274
C          2.47799        18.41222         0.63478
C          3.68400         2.12950         0.08382
C          3.67313         3.56124         0.18653
C          4.91417         1.43433         0.04639
C          4.91290         4.26737         0.23669
C          3.67184         6.38834         0.46976
C          3.70130         7.82742         0.79773
C          4.91533         5.69405         0.36013
C          4.95345         8.57601         0.56259
C          3.67234        10.70521         0.29717
C          3.65213        12.04309        -0.14054
C          4.90896        10.00352         0.34061
C          4.85122        12.73562        -0.38282
C          3.56402        14.91641        -0.24034
C          3.62046        16.31503         0.00095
C          4.78309        14.18823        -0.66893
C          4.85842        17.05039        -0.11048
C          3.64201        19.11486         0.51087
C          4.87627        18.45875         0.16156
C          6.14680         2.11947         0.10124
C          6.14263         3.55760         0.19190
C          7.38227         1.43014         0.06906
C          7.37549         4.26740         0.23388
C          6.14530         6.40850         0.39532
C          6.14805         7.85851         0.42845
C          7.37048         5.69492         0.30887
C          7.40271         8.55883         0.30740
C          6.12349        10.69172         0.04105
C          6.10739        12.08541        -0.26126
C          7.38316        10.00110         0.12767
C          7.34073        12.81136        -0.43195
C          6.07324        14.95566        -0.74982
C          6.07093        16.39470        -0.41746
C          7.34804        14.22096        -0.61896
C          7.29658        17.09322        -0.40376
C          6.08323        19.16756         0.09748
C          7.30876        18.50989        -0.17495
C          8.61286         2.12291         0.10682
C          8.61252         3.56063         0.18131
C          9.85176         1.43908         0.06299
C          9.84492         4.27101         0.21653
C          8.61920         6.39669         0.32102
C          8.61084         7.84183         0.30685
C          9.83351         5.69142         0.30133
C          9.87008         8.52930         0.17683
C          8.57519        10.71532        -0.00295
C          8.59176        12.12518        -0.28423
C          9.87684        10.02936         0.30528
C          9.80445        12.83983        -0.43430
C          8.54542        14.94872        -0.66724
C          8.53749        16.39824        -0.63611
C          9.81003        14.24909        -0.66519
C          9.73639        17.11171        -0.69613
C          8.54430        19.20313        -0.21003
C          9.75335        18.52899        -0.47098
C         11.07442         2.13791         0.05185
C         11.08777         3.56216         0.12653
C         12.31948         1.44043        -0.08170
C         12.33562         4.27086         0.02588
C         11.13180         6.41527         0.55694
C         11.07787         7.86597         0.16162
C         12.35985         5.68413         0.08170
C         12.32560         8.56974        -0.11075
C         11.00193        10.66515        -0.50157
C         11.12751        12.16301        -0.17650
C         12.30430         9.92449        -0.39732
C         12.31546        12.78538        -0.86750
C         11.00695        14.94842        -0.88754
C         10.99451        16.42655        -1.16133
C         12.28373        14.23780        -1.24889
C         12.26802        17.10459        -0.71161
C         11.00408        19.21261        -0.43627
C         12.23493        18.52316        -0.48169
C         13.51699         2.11242        -0.20140
C         13.55532         3.54587        -0.16660
C         14.77115         1.31059        -0.45607
C         14.79369         4.25162        -0.27416
C         13.56459         6.39846        -0.13295
C         13.56103         7.82556        -0.21302
C         14.79957         5.67300        -0.29426
C         14.78085         8.53602        -0.49355
C         13.47854        10.58793        -1.04766
C         13.48978        12.09976        -0.95081
C         14.77409         9.90543        -0.75525
C         14.76145        12.81509        -0.89595
C         13.53430        14.96757        -0.80716
C         13.47620        16.39794        -0.62480
C         14.72472        14.26689        -0.69129
C         14.70162        17.09900        -0.33436
C         13.45489        19.21735        -0.26118
C         14.68026        18.53775        -0.19051
C         16.05336         2.08937        -0.29039
C         16.04128         3.52563        -0.31669
C         17.24339         1.40255        -0.19267
C         17.26913         4.22465        -0.34012
C         16.03388         6.38933        -0.44129
C         16.02975         7.80206        -0.55106
C         17.27961         5.65951        -0.44390
C         17.24594         8.52586        -0.74801
C         16.01212        10.65664        -1.16971
C         15.93886        12.11680        -0.76170
C         17.28633         9.92863        -0.81865
C         17.15288        12.80843        -0.29593
C         15.95353        14.96942        -0.37532
C         15.91183        16.39645        -0.20848
C         17.16000        14.28205        -0.22506
C         17.12799        17.08714         0.14112
C         15.90418        19.23175        -0.00485
C         17.12202        18.54843         0.15223
C         18.50460         2.08227        -0.16341
C         18.51486         3.51600        -0.29533
C         19.70826         1.38053        -0.03933
C         19.74770         4.20662        -0.34920
C         18.50419         6.33359        -0.57498
C         18.49338         7.76926        -0.85929
C         19.76153         5.64810        -0.50264
C         19.81756         8.54911        -0.71525
C         18.50948        10.63588        -0.62973
C         18.45159        12.07374        -0.24195
C         19.72684         9.97744        -0.43698
C         19.74274        12.87226        -0.29056
C         18.37147        14.95203         0.19396
C         18.29044        16.38042         0.41469
C         19.57682        14.24527         0.34256
C         19.50464        17.11880         0.93058
C         18.34601        19.24269         0.22902
C         19.56820        18.57376         0.50253
C         20.95575         2.05855        -0.02548
C         20.97468         3.48860        -0.19277
C         22.17574         1.35954         0.10662
C         22.21487         4.17238        -0.17172
C         20.97728         6.35780        -0.45663
C         21.01689         7.78299        -0.33910
C         22.28563         5.62926        -0.54548
C         22.15679         8.45055         0.09845
C         20.88323        10.67149         0.10040
C         20.88651        12.03063         0.25115
C         22.05509         9.86050         0.63909
C         22.05805        12.68294         0.95573
C         20.76916        14.90310         1.03290
C         20.76648        16.35443         0.64301
C         22.07124        14.17503         0.74432
C         22.00604        17.09762         0.32023
C         20.77434        19.24011         0.54043
C         22.00774        18.52574         0.99599
C         23.40929         2.03907         0.12696
C         23.41685         3.47520         0.01911
C         24.64790         1.34292         0.21497
C         24.66725         4.18930         0.11647
C         23.44698         6.35753         0.08065
C         23.39757         7.73702         0.27393
C         24.67727         5.62377         0.22916
C         24.60981         8.48469         0.55152
C         23.36972        10.61207         0.53472
C         23.36574        11.98559         0.63536
C         24.60688         9.86351         0.55497
C         24.59141        12.75156         0.52566
C         23.24911        14.83891         0.53401
C         23.24822        16.32231         0.69752
C         24.51535        14.13898         0.41797
C         24.51167        17.09435         0.77119
C         23.29920        19.23978         0.67508
C         24.50227        18.57723         0.59552
C         25.86961         2.02715         0.21623
C         25.87306         3.47405         0.21138
C         27.11761         1.33885         0.24862
C         27.11258         4.18350         0.26171
C         25.87943         6.29961         0.47443
C         25.88014         7.74318         0.90682
C         27.11497         5.60248         0.37499
C         27.13650         8.47982         0.49161
C         25.88367        10.60873         0.89474
C         25.86311        12.06058         0.47418
C         27.13717         9.87394         0.48090
C         27.05794        12.74107         0.25062
C         25.75433        14.90642         0.20393
C         25.75302        16.38692         0.35694
C         27.05842        14.19846         0.19333
C         27.03495        17.07225         0.75458
C         25.76946        19.22677         0.38501
C         26.99944        18.56091         0.43537
C         28.33694         2.02127         0.19561
C         28.34618         3.47829         0.16712
C         29.57762         1.32956         0.26143
C         29.54896         4.18999         0.06266
C         28.35170         6.31856         0.30725
C         28.34574         7.75930         0.29326
C         29.56377         5.60964         0.11824
C         29.55606         8.46858         0.05751
C         28.33435        10.58731         0.19328
C         28.32087        12.04134         0.11701
C         29.53310         9.87956        -0.02837
C         29.51215        12.74142        -0.10697
C         28.22714        14.90479         0.11148
C         28.23540        16.41651         0.04205
C         29.47258        14.22052        -0.38560
C         29.53264        17.05765         0.53660
C         28.24022        19.21733         0.25293
C         29.49085        18.54829         0.25830
C         30.80324         2.00233         0.14935
C         30.80165         3.44446        -0.30866
C         32.02819         1.34074         0.28684
C         32.06607         4.19311         0.02535
C         30.81167         6.33610         0.00958
C         30.80903         7.74687        -0.03584
C         32.05262         5.61480         0.01605
C         32.04779         8.47016        -0.08789
C         30.76316        10.59745        -0.53390
C         30.76675        12.07523        -0.24070
C         32.05784         9.89936        -0.19723
C         31.97633        12.78676        -0.27787
C         30.76311        14.95008        -0.09320
C         30.76863        16.34841         0.04169
C         31.98130        14.23445        -0.18510
C         31.97550        17.07638         0.00638
C         30.70169        19.21820         0.09885
C         31.95797        18.52638         0.04965
C         33.27080         2.03668         0.23011
C         33.27106         3.48885         0.14272
C         34.48531         1.35237         0.31234
C         34.51559         4.19611         0.19239
C         33.28635         6.33215         0.04991
C         33.27666         7.75989        -0.01100
C         34.52162         5.62200         0.11645
C         34.51958         8.46991        -0.04487
C         33.25062        10.62094        -0.16247
C         33.24355        12.08401        -0.24494
C         34.51240         9.91904        -0.08269
C         34.43363        12.80217        -0.18844
C         33.20860        14.95016        -0.16250
C         33.20850        16.37513        -0.11579
C         34.45536        14.24336        -0.21805
C         34.43695        17.09562        -0.14484
C         33.16737        19.21731        -0.02272
C         34.41817        18.53371        -0.10753
C         35.73199         2.03978         0.29686
C         35.73985         3.47936         0.25307
C         36.94988         1.33899         0.30687
C         36.97976         4.18315         0.25267
C         35.76192         6.33443         0.09113
C         35.73111         7.75409        -0.03015
C         36.99886         5.60999         0.18583
C         36.99911         8.49051        -0.18921
C         35.71872        10.63151        -0.05098
C         35.71132        12.11265         0.20171
C         36.98005         9.96721        -0.06939
C         36.97809        12.80621        -0.22536
C         35.66387        14.96240        -0.27183
C         35.66938        16.38884        -0.23725
C         36.94186        14.25096        -0.63706
C         36.90158        17.11948        -0.27462
C         35.63212        19.23449        -0.15881
C         36.87537        18.55200        -0.22708
C         38.18780         2.02035         0.26240
C         38.20579         3.45443         0.25878
C         39.42098         1.31477         0.19606
C         39.45051         4.14472         0.22051
C         38.26179         6.28183         0.23335
C         38.28574         7.74875         0.02595
C         39.46607         5.57673         0.26551
C         39.52105         8.52724         0.35833
C         38.17347        10.68636        -0.08117
C         38.16733        12.12785        -0.17192
C         39.47995         9.99685         0.10465
C         39.47568        12.85462         0.06437
C         38.20356        15.01125        -0.30081
C         38.16202        16.43398        -0.29256
C         39.43167        14.34163        -0.21250
C         39.37994        17.17154        -0.24639
C         38.09344        19.27018        -0.22938
C         39.33841        18.60678        -0.23594
C         40.62191         1.99487         0.08101
C         40.66177         3.40724         0.08311
C         41.90638         4.11754        -0.11023
C         40.78647         6.27120         0.32014
C         40.83316         7.78378         0.34181
C         41.97226         5.46959        -0.05180
C         42.02243         8.56475        -0.07664
C         40.71822        10.66147        -0.42760
C         40.69584        12.16735        -0.53836
C         41.97210         9.87001        -0.40435
C         41.93513        12.97026        -0.53266
C         40.65475        15.05325        -0.22412
C         40.63852        16.49246        -0.24579
C         41.89651        14.31041        -0.32333
C         41.82483        17.26886        -0.24238
C         40.55767        19.33607        -0.22989
C         41.77534        18.66498        -0.23441
O          3.03935         8.06110         2.11023
O         37.81769         8.04981        -1.34551
O         19.30188         8.15083        -2.02224
O         40.45967        11.33552        -1.71168
O         17.69208        12.22788         0.99229
O         39.51509         9.46741         1.49391
O         25.65920        15.85595        -0.99649
O         23.86362        16.64532         2.01097
O          5.31209        14.60671        -1.97822
O         41.01577         7.02393         1.58447
O         20.54036        14.76969         2.48657
H         19.90371        15.49594         2.73494
O         10.98098        16.58417        -2.65560
H         10.08703        16.31778        -2.96321
O         29.63749        16.90288         1.99197
H         30.47005        17.33957         2.27180
O         22.08562        17.38736        -1.11207
H         21.97906        16.54710        -1.60480
O         12.32002        14.23713        -2.72470
H         12.07683        15.15420        -3.01324
O         21.88668        18.32892         2.43432
H         22.66741        17.77956         2.70908
O         19.38454        17.15290         2.40881
H         20.18774        17.65773         2.71559
O         10.58757        10.58014        -1.89254
H         11.38399        10.76635        -2.44849
O         10.10783        10.23362         1.74788
H          9.29891         9.94039         2.21835
O         20.02093        13.10133        -1.71193
H         20.95171        13.39528        -1.79868
O          2.50045        10.53053         2.33118
H          2.92403         9.77675         2.80939
O         35.73055        12.24548         1.68861
H         36.57365        11.85369         2.00474
O         30.78113         3.37579        -1.78403
H         31.59010         2.89609        -2.06291
O         14.78480         0.12176         0.34535
H         14.80692         0.38962         1.28671
O         25.91157         7.72245         2.37691
H         25.94703         8.66887         2.66602
O          2.37096        12.79817        -2.00053
H          3.15445        13.31702        -2.28540
O         22.61101         5.63163        -1.99962
H         21.80934         5.32541        -2.47601
O         11.45153        12.40213         1.22386
H         10.93515        11.76333         1.77423
O         13.26256        10.37120        -2.54055
H         13.29545         9.39972        -2.68951
O         16.00459        10.67756        -2.64683
H         15.07449        10.86008        -2.92948
O         21.79922         9.68874         2.07023
H         21.74475        10.60281         2.45548
O         27.06481        16.89502         2.18315
H         27.96927        17.12011         2.50918
O         29.35848        14.30997        -1.86042
H         29.11790        15.25141        -2.05606
O         39.66736        12.76558         1.51829
H         39.66648        11.81657         1.77414
O         36.92899        14.20940        -2.11791
H         36.87425        15.13565        -2.43688
O         25.92368        10.61926         2.37613
H         25.11328        11.08148         2.68406
O         30.67201        10.51470        -2.00884
H         29.96781        11.13661        -2.29336
O         28.15706        16.75760        -1.37177
H         27.25237        16.48243        -1.67219
O         11.27343         6.43594         2.03529
H         10.51949         6.95274         2.39156
O         21.86371        12.44815         2.39939
H         21.25514        13.16124         2.72943
H          0.29603         1.58330         0.03636
H          0.26362         4.03866         0.23586
H          2.45049         0.33613        -0.05419
H          0.29792         5.97534         0.03229
H          0.26436         8.37482         0.26488
H          0.19673        10.29317         0.66550
H          0.16760        12.40283        -0.48851
H          0.26450        14.33772         0.46456
H          0.32917        16.77797         0.89008
H          1.54839        18.92482         0.92266
H          4.90945         0.33660        -0.02715
H          3.65968        20.19838         0.69890
H          7.38375         0.33170         0.00748
H          6.08524        20.25178         0.28457
H          9.85815         0.34058         0.00341
H          8.55987        20.28636        -0.01818
H         12.31352         0.34120        -0.12143
H         11.00841        20.29838        -0.25770
H         14.73275         0.95840        -1.52719
H         13.43196        20.30896        -0.12485
H         17.22770         0.30351        -0.14757
H         15.89698        20.33179         0.01798
H         19.69068         0.28467         0.05594
H         18.35361        20.33465         0.09039
H         22.16061         0.26260         0.19106
H         20.82820        20.30153         0.25200
H         24.64129         0.24331         0.25722
H         23.26851        20.32884         0.51273
H         27.11693         0.23890         0.28955
H         25.76431        20.31474         0.21196
H         29.57339         0.24299         0.44038
H         28.23680        20.30428         0.07107
H         32.03834         0.25763         0.48436
H         30.70449        20.31323        -0.01502
H         34.48376         0.25396         0.37680
H         33.16546        20.31745        -0.01047
H         36.94077         0.23895         0.32328
H         35.62705        20.33399        -0.12687
H         39.40764         0.21537         0.20091
H         38.06885        20.36980        -0.20674
H         41.56369         1.43488        -0.01315
H         42.81230         3.52947        -0.31990
H         42.93680         5.98135        -0.17539
H         42.99547         8.05215        -0.07191
H         42.89607        10.38069        -0.71289
H         42.89661        12.47027        -0.71781
H         42.84548        14.86411        -0.32003
H         42.80759        16.77942        -0.23588
H         40.52777        20.43492        -0.22261
H         42.71375        19.23713        -0.22832
