         280
 CSIRO Nanostructure Databank - Neutral Graphene Oxide Data Set
C         30.46775        31.59401        -0.05572
C         30.57680        32.77519        -0.57635
C         30.71228        35.81588        -1.67770
C         30.65136        37.05223        -1.72727
C         30.71523        40.30718        -1.58314
C         30.47162        41.60366        -1.63944
C         32.77007        28.89358         1.13331
C         31.71439        29.49118         0.86643
C         32.86193        31.42414        -0.05642
C         31.49551        30.77495         0.29270
C         32.90672        32.91257        -0.26047
C         31.67359        33.57713        -0.73229
C         33.03656        35.73015        -0.99771
C         31.80428        34.90146        -1.35299
C         32.99964        37.25680        -1.24355
C         31.57318        37.94174        -0.91482
C         32.87978        40.27926        -0.66793
C         31.63367        39.41558        -1.22605
C         32.89341        41.71605        -1.21556
C         31.52479        42.42395        -1.34463
C         32.75787        44.49544        -0.93105
C         31.75558        43.82903        -1.23965
C         35.59156        27.38417         1.86269
C         35.42109        28.52996         0.92887
C         34.12865        29.21611         0.67226
C         35.38374        31.46356         0.47095
C         34.13911        30.68007         0.21225
C         35.23389        32.96761         0.68287
C         34.06373        33.61594        -0.04631
C         35.36403        35.84913         0.00695
C         34.01414        35.13786         0.00689
C         35.46120        37.32243        -0.40803
C         34.08184        38.03022        -0.41496
C         35.43483        40.29376        -0.42964
C         34.20821        39.49386        -0.96630
C         35.40231        41.79354        -0.51226
C         34.16923        42.50495        -1.07991
C         35.26056        44.71471        -0.35221
C         34.18435        44.10269        -1.19629
C         35.46953        45.97491         0.11856
C         38.05202        27.38722         1.75885
C         36.75742        26.89248         1.93763
C         37.89795        28.91478         1.64871
C         36.75436        29.30670         0.65820
C         37.82547        31.61967         0.68164
C         36.58303        30.83632         0.67006
C         37.74455        33.07505         0.53485
C         36.52794        33.72540         0.51094
C         37.70011        35.87617         0.99427
C         36.48491        35.18207         0.40167
C         37.67867        37.40970         0.97821
C         36.42607        38.10879         0.50831
C         37.69197        40.41207         0.93560
C         36.43259        39.60997         0.48457
C         37.72065        41.78879         0.34412
C         36.43271        42.57549         0.32324
C         37.76557        44.72936         0.25197
C         36.61148        43.97776        -0.35900
C         37.73001        46.06824         0.65985
C         36.41957        46.65491         0.65863
C         40.47783        24.65495         1.38056
C         39.36663        25.23326         1.45485
C         40.34800        27.30885         0.81136
C         39.21065        26.68012         1.36315
C         40.40206        28.78533         0.78925
C         39.18143        29.58095         1.19253
C         40.34840        31.72094         0.57839
C         39.04901        30.98938         0.76395
C         40.16280        33.14470         0.14650
C         38.99492        33.82059         0.36742
C         40.17885        35.97692         0.64058
C         39.01139        35.28474         0.52166
C         40.27265        37.41295         1.16274
C         38.96395        38.19146         1.06378
C         40.21454        40.32307         0.67739
C         39.00819        39.64921         0.74105
C         40.26174        41.78176         0.61148
C         39.02208        42.48237         0.07967
C         40.28255        44.65654         0.40539
C         38.96380        43.91492         0.67160
C         40.20450        46.12254         0.75164
C         38.98510        46.75177         0.96810
C         40.27886        48.77024         1.34164
C         39.18270        48.14896         1.26447
C         43.00285        24.59064         0.75552
C         41.72853        25.05751         0.87025
C         42.83017        27.37546         0.21541
C         41.50973        26.54070         0.19936
C         42.64670        28.70873        -0.51166
C         41.39565        29.44629        -0.13146
C         42.64394        31.69053        -0.62238
C         41.36144        30.94774        -0.27413
C         42.67903        33.18652        -0.42325
C         41.40974        33.90084        -0.09969
C         42.70939        36.03069         0.17377
C         41.49844        35.22096         0.62475
C         42.71609        37.41310         0.72545
C         41.42790        38.14618         0.42624
C         42.67533        40.25681         1.00395
C         41.49505        39.61475         0.75651
C         42.66430        41.72630         1.22322
C         41.41727        42.46228         0.90087
C         42.74451        44.68267         0.81962
C         41.44924        43.96682         1.15306
C         42.74430        46.02930         0.60454
C         41.47819        46.86438         0.41951
C         42.86792        48.79815         0.88124
C         41.56620        48.33781         1.01325
C         43.90477        25.30638         0.12071
C         45.11299        27.13895        -1.24278
C         44.04247        26.55538        -0.34228
C         45.15845        28.75954        -1.17013
C         43.87826        29.49917        -0.90242
C         45.17668        31.69608        -0.80369
C         43.90903        30.95914        -0.66920
C         45.21508        33.20027        -0.53355
C         43.97600        33.80964         0.08985
C         45.28480        36.02367         0.28581
C         43.99991        35.32877        -0.02795
C         45.27155        37.35384         0.67269
C         44.01736        38.07112         1.02235
C         45.20828        40.31992         0.75961
C         44.01383        39.56891         1.32963
C         45.22751        41.67231         0.86664
C         43.99779        42.45910         1.22491
C         45.12311        44.49027         0.07576
C         44.07901        43.99470         1.08396
C         45.12341        45.98449        -0.10296
C         44.03104        46.72517         0.32999
C         43.86464        48.12094         0.47233
C         47.41023        27.35658        -0.25718
C         46.46904        26.76816        -0.77394
C         47.48519        28.82757         0.02763
C         46.52690        29.48022        -1.01410
C         47.63279        31.65795        -0.38465
C         46.45362        30.97828        -0.68803
C         47.68677        33.09690        -0.18899
C         46.49831        33.87591        -0.17832
C         47.79103        35.90922         0.61092
C         46.49689        35.24706         0.17948
C         47.73854        37.37680         0.29050
C         46.56404        38.14306         0.83292
C         47.69869        40.32178         0.23549
C         46.39159        39.54591         0.19398
C         47.76263        41.65330         0.48450
C         46.52807        42.46992         0.87121
C         47.69273        44.41098        -0.38577
C         46.40719        43.70746        -0.05408
C         47.41568        45.75919        -0.76116
C         46.37013        46.43120        -0.60925
C         50.12173        28.91505        -0.14666
C         48.81590        29.50844        -0.08654
C         50.21864        31.55723        -0.10078
C         48.86779        30.87879        -0.22863
C         50.17397        33.05865        -0.29655
C         48.96780        33.77680        -0.10704
C         50.21000        35.90396        -0.11925
C         49.01551        35.19858         0.06571
C         50.20866        37.42788         0.04914
C         48.86581        38.03343        -0.46087
C         50.17047        40.30609        -0.46663
C         48.86495        39.58123        -0.34568
C         50.33529        41.69754         0.09249
C         49.06717        42.44801         0.57476
C         50.20827        44.36523        -0.34605
C         48.90857        43.83952        -0.14176
C         51.26557        29.37136        -0.32913
C         52.59571        31.63175        -0.67299
C         51.37563        30.77435        -0.92229
C         52.49365        32.86702        -0.65393
C         51.39382        33.76907        -0.42533
C         52.55607        36.00325        -0.65664
C         51.40408        35.16739        -0.41523
C         52.46400        37.23110        -0.84514
C         51.42429        38.15904        -0.59237
C         52.46410        40.41816        -1.08279
C         51.41188        39.50660        -0.75599
C         52.54406        41.66260        -1.11135
C         51.63885        42.47241        -0.27709
C         51.36685        43.91351        -0.41488
O         51.45503        41.90205         1.02540
O         41.93521        33.88980        -1.45589
O         33.58746        30.76384        -1.15150
O         43.32230        42.13623         2.47714
O         46.66081        42.96776         2.17501
O         33.75979        41.94590        -2.37439
O         38.12728        37.94469         2.27069
O         45.38744        43.65324        -1.09849
O         43.20413        37.39826         2.09607
O         49.24243        40.25146        -1.60568
O         43.25882        35.90571        -1.16422
O         36.11268        41.00096        -1.51590
O         40.29839        29.39164         2.12912
O         35.81283        38.88766         1.57914
O         32.95835        34.98141        -2.24446
O         41.52552        28.76891        -1.41776
O         44.40141        29.24567        -2.30378
O         45.10719        32.74955        -1.88863
O         34.70246        28.30477        -0.30453
O         41.58860        31.35297        -1.62331
O         44.52631        44.48401         2.36620
H         45.36277        43.95671         2.58508
O         41.30556        44.13241         2.59158
H         42.07114        43.65430         3.00174
O         32.68001        40.45248         0.71996
H         32.82599        39.58395         1.17829
O         47.86509        35.78740         2.09920
H         47.44780        34.93611         2.35319
O         50.62940        31.39495         1.28566
H         49.98819        31.86650         1.85607
O         40.62819        44.62179        -1.00150
H         40.25280        43.79371        -1.41475
O         35.93032        42.79264         1.64869
H         36.51822        42.31505         2.28313
O         40.63802        37.33828         2.55985
H         39.80731        37.41430         3.08407
O         43.14607        27.73095         1.56788
H         43.27817        26.90906         2.08755
O         44.16317        39.69247         2.76104
H         43.62456        38.98125         3.17432
O         44.86957        26.75103        -2.57659
H         44.33040        27.45295        -3.00878
O         31.23468        37.77016         0.44885
H         30.43697        38.30192         0.65012
O         34.40235        39.40274        -2.37124
H         34.70428        40.28827        -2.69258
O         41.21963        26.22207        -1.15722
H         40.32119        25.83540        -1.21175
O         51.08509        30.73773        -2.27597
H         51.77855        30.24596        -2.75999
O         36.94371        43.73686        -1.75737
H         36.18649        44.02180        -2.33710
O         41.15304        38.04304        -0.99035
H         41.83425        37.49333        -1.43572
O         41.38324        47.15338        -1.00022
H         41.11390        46.30849        -1.44412
O         50.25807        37.73879         1.45306
H         51.01717        37.26940         1.85774
O         33.20345        37.43494        -2.63604
H         32.97035        36.58607        -3.08430
O         34.87737        33.13490         2.11525
H         35.69937        33.03522         2.64414
O         37.53944        40.61749         2.37752
H         37.17894        39.76862         2.73679
O         38.75336        43.72092         2.09277
H         39.60455        43.83667         2.58660
O         46.81134        38.34201         2.24534
H         47.19115        37.50010         2.59951
O         48.74248        37.67111        -1.85124
H         47.95894        38.14045        -2.21347
O         49.25023        42.78006         1.94675
H         50.21476        42.76506         2.14655
O         37.21867        28.92616        -0.64394
H         36.42694        28.76616        -1.20902
O         39.22536        42.47399        -1.37606
H         38.36411        42.72723        -1.80362
O         33.63467        38.08100         0.94217
H         33.48908        37.15855         1.28620
O         46.94548        29.06750         1.32879
H         47.55523        28.68848         1.99564
O         46.11210        39.27527        -1.21243
H         46.06807        40.13091        -1.69064
O         37.61333        35.45826         2.39595
H         37.85562        36.24166         2.94499
O         41.76593        34.89504         2.02696
H         41.69190        35.74260         2.53882
O         41.02427        31.85146         1.87034
H         40.37739        32.17430         2.53237
O         33.45531        35.42705         1.33910
H         33.91039        34.81722         1.97491
O         37.54117        29.46718         2.92580
H         38.28556        29.29687         3.54188
O         44.07584        33.49135         1.49992
H         43.29212        33.89018         1.96336
O         47.17797        29.37276        -2.28912
H         46.53126        29.63836        -2.97843
O         34.49714        44.40289        -2.56093
H         33.96871        43.78494        -3.12063
O         36.03173        37.32981        -1.72924
H         35.43469        37.84093        -2.33435
