         344
 CSIRO Nanostructure Databank - Neutral Graphene Oxide Data Set
C          1.23650         1.91295         0.68926
C          1.19234         3.32137         0.65568
C          2.43166         1.24121         0.53211
C          2.35002         4.08460         0.47438
C          1.12389         6.29319         0.41615
C          1.11556         7.72555         0.37208
C          2.27824         5.54064         0.33248
C          2.25644         8.48043         0.19878
C          1.22365        10.65466         0.88563
C          1.29533        12.03084         1.08393
C          2.32692         9.94294         0.36966
C          2.44585        12.75773         0.75797
C          1.21867        14.97496         0.76950
C          1.21861        16.31760         0.59446
C          2.49930        14.23305         1.07566
C          2.45191        17.06984         0.54786
C          2.41919        18.48008         0.29635
C          3.64871         1.96585         0.36287
C          3.61394         3.40289         0.35112
C          4.87765         1.28549         0.23912
C          4.84731         4.10421         0.22223
C          3.52543         6.25049        -0.00093
C          3.50176         7.75316        -0.11224
C          4.84570         5.61046         0.38764
C          4.78524         8.50840         0.16637
C          3.50661        10.66667         0.06361
C          3.58329        12.08136         0.23995
C          4.70312         9.90217        -0.46735
C          4.78664        12.83808        -0.07363
C          3.70544        14.94942         0.51699
C          3.67652        16.35954         0.50345
C          4.86347        14.22931         0.09208
C          4.94209        17.10458         0.40668
C          3.55203        19.21188         0.07482
C          4.88208        18.61517         0.24599
C          6.09849         1.98355         0.10523
C          6.06333         3.42368         0.08042
C          7.34038         1.30785         0.03982
C          7.33008         4.14946         0.01280
C          6.03492         6.25654        -0.33891
C          6.06690         7.76856        -0.17087
C          7.31059         5.53875         0.00748
C          7.23117         8.46423        -0.27503
C          6.01215        10.69260        -0.23189
C          5.88428        12.11755        -0.82123
C          7.22359         9.89688        -0.79363
C          7.24248        12.85160        -0.87227
C          6.11309        14.96371        -0.18448
C          6.16004        16.38031        -0.00022
C          7.29602        14.29242        -0.53916
C          7.35597        17.10185        -0.18235
C          6.08204        19.33505        -0.33861
C          7.36945        18.55157        -0.20605
C          8.58497         2.00190        -0.03530
C          8.58177         3.45067        -0.00965
C          9.79336         1.31531        -0.13970
C          9.82193         4.16845        -0.04307
C          8.54576         6.28694         0.20859
C          8.51333         7.79539         0.05862
C          9.82862         5.59204         0.06420
C          9.79761         8.47445        -0.11754
C          8.49414        10.65639        -0.46108
C          8.54452        12.08967        -0.91439
C          9.77042         9.94465        -0.14073
C          9.89846        12.80827        -0.91444
C          8.57331        14.95766        -0.46631
C          8.59437        16.39330        -0.31565
C          9.80068        14.25916        -0.49979
C          9.82164        17.09836        -0.31569
C          8.56065        19.22806        -0.25242
C          9.82551        18.54192        -0.26179
C         11.10029         2.00275        -0.39980
C         11.07159         3.48788        -0.11292
C         12.27497         1.30319         0.30395
C         12.28114         4.20390        -0.02315
C         11.02504         6.33010         0.01986
C         10.99387         7.78512        -0.02274
C         12.27517         5.63848        -0.00859
C         12.24284         8.52568         0.03788
C         11.05045        10.68168        -0.13839
C         11.05578        12.06249        -0.28205
C         12.24455         9.93184         0.09118
C         12.30912        12.79411        -0.24000
C         11.05031        14.94758        -0.41708
C         11.06538        16.39914        -0.36201
C         12.26451        14.23004        -0.41332
C         12.28379        17.11354        -0.30149
C         11.02389        19.24408        -0.24045
C         12.28742        18.56601        -0.21261
C         13.57139         2.05889         0.09328
C         13.54972         3.48956         0.02258
C         14.76966         1.37423         0.04525
C         14.76519         4.20071         0.01381
C         13.49682         6.38268        -0.05960
C         13.47537         7.79649        -0.00947
C         14.76507         5.65721        -0.05147
C         14.71479         8.55374        -0.07415
C         13.50168        10.67581         0.45302
C         13.50073        12.11716         0.00240
C         14.74910         9.91168         0.07092
C         14.77355        12.88706         0.23430
C         13.52433        14.96409        -0.76483
C         13.53288        16.42735        -0.39824
C         14.79262        14.27234        -0.34881
C         14.74435        17.10146        -0.29288
C         13.48547        19.25817        -0.12337
C         14.76383        18.53480         0.17665
C         16.01779         2.06644        -0.04333
C         16.00704         3.49735        -0.02905
C         17.25009         1.38055        -0.07790
C         17.25448         4.19699        -0.02385
C         15.95243         6.34721        -0.10203
C         15.92261         7.78122        -0.55757
C         17.26810         5.68710         0.23404
C         17.25520         8.47814        -0.21706
C         16.06112        10.64358         0.25290
C         16.03490        12.12015        -0.07565
C         17.17808         9.96587        -0.55600
C         17.21282        12.76467        -0.29933
C         15.97401        14.95589        -0.42535
C         15.99311        16.40462        -0.41630
C         17.26753        14.22358        -0.67448
C         17.21683        17.08562        -0.29263
C         16.03120        19.24637        -0.19346
C         17.22644        18.54369        -0.26942
C         18.48048         2.07701        -0.06771
C         18.46019         3.51500        -0.02751
C         19.72420         1.39257        -0.07282
C         19.74595         4.27573         0.22192
C         18.50100         6.34783        -0.36915
C         18.43407         7.77390        -0.89273
C         19.70323         5.69069        -0.31801
C         19.71875         8.53667        -0.68454
C         18.50570        10.65988        -0.38428
C         18.49299        12.04927        -0.32366
C         19.73585         9.92010        -0.50903
C         19.70781        12.78867        -0.21233
C         18.49480        14.93161        -0.16343
C         18.46281        16.37334        -0.13275
C         19.66864        14.20133        -0.01104
C         19.65505        17.09078         0.05313
C         18.48878        19.21355        -0.31216
C         19.69835        18.52011        -0.13228
C         20.96603         2.07926        -0.14937
C         20.99049         3.52040        -0.17454
C         22.18260         1.37304        -0.24095
C         22.17886         4.20972        -0.39220
C         20.95015         6.34934        -0.61696
C         20.95750         7.78912        -1.06298
C         22.16563         5.66411        -0.55454
C         22.22226         8.52442        -0.73357
C         20.98266        10.65297        -0.50471
C         20.97704        12.08877        -0.32391
C         22.20948         9.93938        -0.62990
C         22.16623        12.81247        -0.35897
C         20.95356        14.85000         0.45409
C         20.88966        16.38063         0.44346
C         22.12971        14.32252        -0.39715
C         22.18087        17.13098         0.37079
C         20.94930        19.21482        -0.15727
C         22.18373        18.57147         0.01868
C         23.41957         2.05445        -0.34957
C         23.42506         3.48921        -0.46556
C         24.65129         1.36309        -0.36320
C         24.65086         4.17117        -0.59948
C         23.39645         6.37363        -0.73805
C         23.43278         7.79165        -0.72276
C         24.64470         5.61850        -0.87573
C         24.69617         8.50465        -0.60948
C         23.46380        10.65116        -0.59473
C         23.44545        12.15032        -0.78837
C         24.66270         9.95795        -0.54288
C         24.69558        12.84333        -0.29502
C         23.44513        14.99412        -0.02897
C         23.44932        16.37496         0.22451
C         24.67564        14.28951        -0.12217
C         24.65520        17.10455         0.36926
C         23.42036        19.23599         0.00674
C         24.65322        18.56644         0.29156
C         25.87808         2.05382        -0.38922
C         25.88832         3.48936        -0.49409
C         27.11337         1.35378        -0.28655
C         27.13328         4.20295        -0.37551
C         25.96203         6.37629        -0.77569
C         25.90213         7.82759        -0.56438
C         27.17928         5.63495        -0.38165
C         27.22088         8.55380        -0.62281
C         25.91023        10.66718        -0.28885
C         25.85788        12.11729        -0.14059
C         27.09617         9.97472        -0.14572
C         27.15010        12.82985        -0.08460
C         25.88058        15.01197         0.08488
C         25.87234        16.38874         0.37275
C         27.17569        14.32684        -0.02297
C         27.12797        17.07159         0.73280
C         25.85799        19.26602         0.30917
C         27.11894        18.63798         0.69154
C         28.31972         2.03697        -0.15640
C         28.33242         3.47675        -0.14428
C         29.56214         1.32706         0.01726
C         29.54659         4.17095         0.13715
C         28.34733         6.33157        -0.02929
C         28.38137         7.78541        -0.00695
C         29.55382         5.59424         0.25841
C         29.52801         8.45516         0.37263
C         28.30061        10.62250         0.39313
C         28.34267        12.12356         0.43935
C         29.58297         9.90276         0.40614
C         29.63997        12.82231         0.45006
C         28.42891        14.99718         0.38248
C         28.42286        16.37776         0.58729
C         29.65290        14.24994         0.46084
C         29.64362        17.10323         0.70360
C         28.41805        19.26311         0.51316
C         29.62096        18.54894         0.65907
C         30.72558         1.99567         0.25845
C         30.74836         3.43202         0.36147
C         31.92163         4.11936         0.70905
C         30.75013         6.25563         0.63655
C         30.72999         7.73577         0.94459
C         31.91048         5.50742         0.86389
C         32.00257         8.47415         0.58590
C         30.78316        10.60088         0.50763
C         30.82507        12.06548         0.55136
C         32.01315         9.81713         0.45372
C         32.04373        12.78645         0.68985
C         30.88435        14.94580         0.63770
C         30.88623        16.39791         0.69231
C         32.06704        14.16935         0.74309
C         32.08726        17.14138         0.71421
C         30.86835        19.23923         0.64398
C         32.06648        18.54178         0.69385
O          7.86970        12.44460        -2.15861
O          8.86600        10.50677         0.92879
O         27.02639        17.84623         1.94024
O          3.48418         6.91956        -1.31331
O         25.42307         5.96332        -2.08877
O         27.38608        13.60139        -1.30684
O          8.44268         7.16731         1.40626
O          5.14517        18.02581         1.55255
O         28.05079        11.36947         1.65929
O         21.50028        16.92167         1.67716
O          5.40741        12.06166        -2.19463
H          6.21115        11.91181        -2.75257
O          6.21342        10.91101         1.16752
H          5.98492        10.08365         1.65825
O         16.81738        10.13868        -1.94667
H         17.26325         9.42500        -2.46148
O         21.86823        14.68933        -1.78230
H         22.41243        14.08740        -2.34409
O         13.55358        10.72236         1.95295
H         13.40184        11.65707         2.22325
O          7.14061         9.79594        -2.22898
H          6.24927         9.41539        -2.43856
O         11.37961         1.84070        -1.83799
H         10.62831         2.23433        -2.33035
O         16.32770        10.58607         1.69204
H         15.44496        10.70763         2.13185
O          5.00063         5.89456         1.81538
H          5.84567         5.49133         2.11221
O          5.89566         6.03811        -1.77238
H          5.02364         6.42821        -2.03910
O         30.61167         7.82448         2.40699
H         30.50857         8.77382         2.63299
O         27.53783         8.64665        -2.06327
H         27.31571         7.78019        -2.46901
O          4.50503         9.66001        -1.88154
H          4.45003        10.55424        -2.31001
O         12.37267        -0.03383        -0.17853
H         12.30427         0.02194        -1.15687
O         17.53766         8.32265         1.18022
H         17.02306         8.99242         1.69566
O         13.54755        14.92968        -2.25562
H         12.98333        14.17973        -2.54552
O         14.80887        13.11798         1.70835
H         15.69437        13.48168         1.92795
O         15.69293         7.70601        -1.99650
H         16.48688         7.29849        -2.41608
O          5.83869        19.60106        -1.73546
H          5.97622        18.77290        -2.23941
O         18.25688         7.72441        -2.34835
H         19.16607         7.56195        -2.72882
O         23.48336        12.36748        -2.26630
H         24.36333        12.06424        -2.58133
O         10.33175        12.87479        -2.32165
H          9.51177        13.00394        -2.85543
O         17.38908         5.78866         1.69266
H         18.28496         5.44066         1.93233
O         21.17141        14.40342         1.80871
H         21.45444        15.19673         2.32617
O         14.80065        18.44328         1.67372
H         13.98787        17.96466         1.94666
O          2.64893        14.29984         2.54655
H          2.77973        15.24410         2.78062
O         20.92587         7.71866        -2.58695
H         21.25793         8.58335        -2.91526
O          4.83110         8.66685         1.61514
H          4.93024         7.75813         2.00240
O         17.41017        14.25437        -2.13831
H         16.58013        13.90036        -2.52395
O         19.83579         4.42219         1.69498
H         19.84814         3.51757         2.07534
H          0.30249         1.35081         0.82845
H          0.21756         3.81777         0.75667
H          2.46090         0.14228         0.54468
H          0.16157         5.79940         0.61336
H          0.15096         8.22002         0.55644
H          0.30359        10.12322         1.16400
H          0.43183        12.54563         1.52686
H          0.26390        14.43130         0.80554
H          0.27233        16.86091         0.45100
H          1.43395        18.95859         0.19072
H          4.88700         0.18583         0.27409
H          3.48604        20.25196        -0.27494
H          7.34900         0.20779         0.04627
H          6.19317        20.33267         0.15782
H          9.78865         0.21548        -0.18063
H          8.56157        20.32796        -0.28977
H         12.06903         1.25364         1.40732
H         11.00973        20.34339        -0.19701
H         14.76171         0.27512         0.09076
H         13.47483        20.35779        -0.07323
H         17.25575         0.28031        -0.08522
H         16.04244        20.34702        -0.19662
H         19.72660         0.29244        -0.08003
H         18.50578        20.31038        -0.39929
H         22.17376         0.27354        -0.20656
H         20.93558        20.29969        -0.34165
H         24.65360         0.26491        -0.29698
H         23.44448        20.32053        -0.17823
H         27.10338         0.25404        -0.25355
H         25.86795        20.33054         0.03173
H         29.54885         0.22838        -0.03102
H         28.45896        20.32853         0.24181
H         31.66570         1.44412         0.40572
H         32.84674         3.55473         0.89403
H         32.83145         6.01023         1.18972
H         32.95160         7.92034         0.54329
H         32.96587        10.33394         0.26995
H         32.99307        12.24296         0.78859
H         33.03535        14.66854         0.88508
H         33.05728        16.62679         0.71974
H         30.86934        20.33777         0.60443
H         33.01741        19.09297         0.69806
