         324
 CSIRO Nanostructure Databank - Neutral Graphene Oxide Data Set
C          1.31448         3.42388        -1.30937
C          0.11640         4.10397        -1.39925
C          1.20330         6.24292        -0.90374
C          0.05712         5.49989        -1.20805
C          1.17711         7.68177        -0.73888
C         -0.04987         8.43268        -0.94999
C          1.00458        10.52492        -0.08760
C         -0.13727         9.75567        -0.70321
C          1.01415        11.98287        -0.50043
C         -0.13444        12.72165        -0.58348
C          1.01729        14.86542        -0.97646
C         -0.13937        14.13793        -0.80766
C          1.06186        16.33466        -0.96908
C         -0.13786        17.07290        -0.62785
C          1.04901        19.23269        -0.60727
C         -0.12413        18.39699        -0.32769
C          1.30239        20.48972         0.14730
C          0.42472        20.83309         1.18998
C          1.87435        22.65235         1.77869
C          0.73952        21.88472         2.04336
C          1.97114        24.89594         2.30129
C          0.95579        25.57346         2.98729
C          1.66014        27.62040         1.93225
C          0.76085        26.93050         2.76482
C          1.58811        29.06759         1.86383
C          3.74520         3.44413        -0.92889
C          2.51736         4.12013        -0.99355
C          3.62498         6.24098        -0.41027
C          2.45974         5.54625        -0.75942
C          3.60608         7.67931        -0.25845
C          2.35172         8.38829        -0.44408
C          3.52279        10.53809        -0.27140
C          2.33331         9.82800        -0.31615
C          3.56563        11.97632        -0.36428
C          2.29852        12.62725        -0.81583
C          3.57872        14.84343        -0.99402
C          2.27811        14.10961        -1.11981
C          3.56470        16.32997        -1.05471
C          2.25974        17.02560        -1.11016
C          3.59291        19.20915        -0.99617
C          2.30571        18.49338        -1.10500
C          3.54650        20.72646        -1.03089
C          2.48178        21.24044        -0.07005
C          3.83500        23.32952         0.32861
C          2.71948        22.43023         0.67146
C          3.85419        24.75064         0.59558
C          2.79546        25.49529         1.31688
C          3.67309        27.71490         0.50883
C          2.66473        26.91106         1.22032
C          3.77846        29.16072         0.81620
C          2.61140        29.80959         1.36258
C          6.17878         3.43947        -0.58612
C          4.94623         4.11653        -0.60670
C          6.02573         6.21448         0.09934
C          4.88732         5.54267        -0.30209
C          5.97084         7.64149         0.57556
C          4.77098         8.37037         0.03406
C          6.03752        10.62020         0.21368
C          4.80848         9.82780        -0.15616
C          5.95973        12.10291         0.37093
C          4.71278        12.70700        -0.09377
C          5.80073        15.01952         0.27322
C          4.63559        14.18926        -0.15430
C          5.89987        16.41678        -0.22323
C          4.78481        17.08577        -0.66655
C          6.05208        19.22865        -0.99901
C          4.79348        18.52583        -0.91495
C          6.09558        20.63097        -0.98996
C          4.88686        21.36459        -0.74552
C          6.12134        23.50989        -0.81776
C          4.92336        22.71701        -0.35828
C          6.20906        24.88821        -0.21573
C          4.98358        25.50507         0.17427
C          6.19752        27.74010         0.08651
C          4.94593        26.97802         0.10305
C          6.18650        29.15471         0.28546
C          4.95545        29.83550         0.60440
C          8.62446         3.45288        -0.25865
C          7.38176         4.09009        -0.22777
C          8.53979         6.27601         0.50369
C          7.28300         5.48296         0.27335
C          8.48023         7.76802         0.57066
C          7.28691         8.40977         0.47332
C          8.39659        10.64832         1.20333
C          7.19012         9.86672         0.80113
C          8.32265        12.18018         1.36410
C          7.04768        12.83472         0.80713
C          8.32041        15.12127         0.85780
C          7.02759        14.33607         0.80911
C          8.46489        16.44167         0.14554
C          7.23525        17.00320        -0.47939
C          8.60227        19.09699        -1.16580
C          7.27932        18.40720        -1.01952
C          8.62248        20.58440        -1.31237
C          7.37291        21.35455        -1.03896
C          8.69948        23.44200        -0.75561
C          7.40586        22.70901        -0.86523
C          8.68926        24.90760        -0.40988
C          7.39728        25.62071        -0.27003
C          8.63719        27.78915        -0.18999
C          7.41723        27.05039        -0.08397
C          8.63966        29.21402         0.04879
C          7.39864        29.85618         0.31074
C         11.08522         3.52715        -0.10105
C          9.85173         4.15608        -0.07237
C         11.08268         6.40640         0.13525
C          9.80425         5.63718         0.03230
C         11.05889         7.77705         0.74420
C          9.74470         8.46392         0.97072
C         10.99346        10.74370         0.73791
C          9.75312         9.96866         1.13929
C         10.72632        12.21633         0.47010
C          9.56824        12.86132         0.82507
C         10.88154        15.10005         0.99612
C          9.59221        14.34185         1.02987
C         10.88985        16.61646         0.79345
C          9.66454        17.07859         0.01156
C         11.07503        19.14966        -0.57114
C          9.86969        18.26991        -0.91940
C         11.14777        20.45645        -1.13760
C          9.94952        21.29526        -1.42233
C         11.19182        23.63645        -1.11767
C          9.95591        22.82815        -1.31671
C         11.16577        25.02818        -0.78738
C          9.91750        25.71276        -0.58574
C         11.04959        27.90222        -0.80922
C          9.85665        27.10660        -0.47017
C         11.07278        29.42902        -0.44722
C          9.84154        29.94694         0.11745
C         13.54365         3.53642         0.12178
C         12.32801         4.23436         0.06852
C         13.53707         6.35485         0.47843
C         12.34623         5.65524         0.22491
C         13.53572         7.81080         0.57282
C         12.31623         8.56202         0.60071
C         13.58070        10.58825         0.36267
C         12.29236         9.96705         0.46196
C         13.74134        11.96583         0.04905
C         11.82356        13.07666         0.06670
C         13.38507        14.98077         0.63525
C         12.04154        14.35284         0.47957
C         13.40503        16.44835         0.42796
C         12.23184        17.14385         0.27900
C         13.53524        19.22539        -0.18402
C         12.26872        18.53798        -0.14244
C         13.61140        20.55379        -0.70955
C         12.42783        20.99133        -1.34188
C         13.65547        23.64243        -0.92527
C         12.44435        23.11691        -1.44328
C         13.64087        25.05295        -0.70735
C         12.39438        25.73887        -0.80210
C         13.65244        27.97824        -0.91321
C         12.36416        27.20501        -0.95909
C         13.61115        29.41098        -0.47484
C         12.37990        30.04418        -0.24173
C         15.99733         3.50255         0.31401
C         14.76664         4.21339         0.33464
C         16.01703         6.30984         0.71879
C         14.77185         5.63513         0.52773
C         16.03771         7.76132         0.73635
C         14.78722         8.47229         0.63981
C         16.03704        10.61638         0.58431
C         14.80104         9.89003         0.58126
C         16.05661        12.04273         0.60251
C         14.81468        12.74671         0.42928
C         15.98311        14.98364         0.69482
C         14.68981        14.21495         0.66227
C         15.98807        16.41479         0.42174
C         14.70684        17.17462         0.70276
C         15.97053        19.24899         0.10752
C         14.74055        18.56885         0.16028
C         15.97531        20.68470        -0.09746
C         14.79930        21.37438        -0.53576
C         15.92409        23.55975        -0.09179
C         14.80351        22.83386        -0.61324
C         16.04183        25.01713        -0.18309
C         14.87660        25.73693        -0.48819
C         16.09274        27.88998        -0.14052
C         14.97364        27.20376        -0.87873
C         16.09608        29.39835        -0.09427
C         14.82520        30.09643        -0.30543
C         18.47372         3.45033         0.41643
C         17.21260         4.16181         0.49193
C         18.50260         6.23614         0.96787
C         17.21628         5.57111         0.73479
C         18.53181         7.79034         0.90496
C         17.24407         8.47304         0.69881
C         18.48576        10.60291         0.36537
C         17.26875         9.90221         0.55932
C         18.47962        12.01090         0.30174
C         17.28680        12.73383         0.48920
C         18.47458        14.97535         0.15181
C         17.30900        14.21353         0.58127
C         18.47708        16.37816         0.30402
C         17.20693        17.10668         0.44550
C         18.39827        19.27380         0.75080
C         17.18543        18.54607         0.41516
C         18.39639        20.77731         0.74267
C         17.11067        21.41975         0.35350
C         18.79928        23.82136         0.41595
C         16.93482        22.79286         0.53004
C         18.61983        25.09693        -0.15585
C         17.32785        25.74471        -0.14968
C         18.57595        27.86462        -0.47985
C         17.36922        27.14815        -0.27676
C         18.56327        29.31467        -0.47316
C         17.39102        30.04553        -0.23855
C         19.67280         4.09784         0.46628
C         20.92513         6.24171         0.54074
C         19.74866         5.52475         0.65965
C         20.93217         7.66503         0.42845
C         19.78825         8.42588         0.49775
C         20.98478        10.66626         0.28889
C         19.74707         9.85200        -0.02581
C         20.98405        12.00196         0.15637
C         19.71776        12.73041        -0.11261
C         20.91180        15.03131        -0.39471
C         19.68081        14.24432        -0.27971
C         20.89560        16.38252        -0.20712
C         19.70875        17.09162         0.16577
C         20.94503        19.32769         0.26384
C         19.76934        18.49486         0.57352
C         20.94097        20.67507         0.26530
C         19.76352        21.52212         0.55098
C         20.86898        23.51157        -0.70352
C         19.82807        22.94064         0.07573
C         20.88836        24.87815        -0.97522
C         19.78081        25.71970        -0.69266
C         20.93179        27.89563        -1.15639
C         19.77909        27.16434        -0.81692
C         20.92404        29.30014        -1.12346
C         19.78104        29.99945        -0.77539
O         18.57472         7.06057         2.17000
O          1.39371        19.20071        -2.02660
O          7.31205        17.25453        -1.93658
O          3.92526        27.41024        -0.88867
O         10.43792         7.78321         2.07124
O         15.88638        28.48374         1.14410
O          8.55845        19.70498        -2.50388
O          7.46663        15.03787         2.02985
O          2.33141        13.12867        -2.20388
O          3.94655        15.48948        -2.24219
O          5.82850        10.22501        -1.18390
O         10.32890        14.68297         2.27930
O          8.89818        23.85735         0.64906
O         10.83177        28.88751        -1.81091
O         17.83496        23.45988         1.36240
O          2.22431        23.59761         2.74637
O         10.36717         6.31754        -1.15000
O         10.64651        10.47174         2.16077
O         12.53951        22.01396        -2.28398
O          7.89368         5.63204         1.64037
O         16.78024        14.65351         1.88667
O          4.65671        14.81364         1.18367
O         13.96391        14.52330         1.92857
O         19.53350        13.30236        -1.45713
O         13.01382        27.70158        -2.19853
O          7.49738        10.06758         2.21116
O          9.89372        22.16263        -2.60358
O         19.13904        18.72276         1.86560
O         12.76531        12.50847        -0.77778
O         19.13676        21.34039         1.85098
O          5.83708        23.80883        -2.23799
H          5.40679        23.01770        -2.63217
O          0.78949        10.51057         1.36367
H          0.77964         9.57359         1.65292
O          5.75377         7.54827         2.02942
H          6.48081         6.98218         2.38472
O         15.47022        27.16570        -2.24903
H         14.67500        27.08623        -2.82954
O         19.69866         9.73031        -1.48623
H         19.67287        10.63966        -1.85615
O          3.21306        21.15626        -2.38893
H          2.42966        20.61828        -2.66459
O         10.23282        17.66840        -2.19177
H          9.82230        18.22356        -2.89612
O          8.32087        12.44917         2.77978
H          9.08609        11.97927         3.17640
O         14.70988        17.29257         2.17092
H         14.63659        16.37476         2.52936
O         10.75676        17.24038         2.09556
H         10.47836        16.53124         2.72527
H          1.35454         2.33898        -1.48216
H         -0.80745         3.55889        -1.63805
H         -0.91788         5.99429        -1.30943
H         -0.93135         7.90849        -1.34441
H         -1.09038        10.27573        -0.87531
H         -1.10461        12.24838        -0.37585
H         -1.11463        14.64042        -0.75719
H         -1.06810        16.51450        -0.45971
H         -1.03052        18.86099         0.08627
H         -0.47620        20.23656         1.38069
H          0.11955        22.10863         2.92020
H          0.34888        25.02599         3.71962
H         -0.02794        27.48024         3.29646
H          0.71645        29.55886         2.31987
H          3.77496         2.36267        -1.12885
H          2.58837        30.90785         1.40927
H          6.21216         2.37919        -0.87800
H          5.00179        30.91592         0.80854
H          8.66808         2.37969        -0.49796
H          7.38996        30.93874         0.50540
H         11.12627         2.43312        -0.21114
H          9.83455        30.95477         0.55790
H         13.54977         2.44460        -0.01155
H         12.39615        31.03744         0.23161
H         15.98516         2.41769         0.13249
H         14.80633        31.19091        -0.19060
H         18.44151         2.36171         0.26426
H         17.41359        31.13858        -0.36591
H         20.61099         3.53644         0.34525
H         21.86763         5.70249         0.36585
H         21.88251         8.13843         0.14195
H         21.92452        10.14418         0.52244
H         21.91122        12.57751         0.29912
H         21.83913        14.52467        -0.69446
H         21.83957        16.93453        -0.31110
H         21.87497        18.81748        -0.02560
H         21.87183        21.19111        -0.01241
H         21.72437        22.90030        -1.02314
H         21.77972        25.30309        -1.45706
H         21.85835        27.36977        -1.42435
H         21.84396        29.84808        -1.37151
H         19.79086        31.09862        -0.75395
