         404
 CSIRO Nanostructure Databank - Neutral Graphene Oxide Data Set
C          1.82418         4.00547        -3.27452
C          0.69377         4.73151        -3.60454
C          1.80744         6.82903        -3.00442
C          0.68251         6.12929        -3.47131
C          1.77405         8.26198        -2.76033
C          0.58559         9.04300        -3.06699
C          1.48894        11.07954        -2.00301
C          0.45045        10.35392        -2.75649
C          1.52212        12.59507        -1.95567
C          0.51487        13.47812        -2.59019
C          1.72831        15.48182        -1.78840
C          0.62332        14.82292        -2.47898
C          1.72488        16.88770        -1.52184
C          0.52790        17.67942        -1.71922
C          1.67220        19.76329        -1.07142
C          0.46770        19.00404        -1.43656
C          1.55865        21.10950        -0.45532
C          0.43074        21.90617        -0.75152
C          1.37241        23.84364         0.39789
C          0.38270        23.25774        -0.39011
C          1.34432        25.24982         0.72354
C          0.24009        26.05036         0.34721
C          1.27322        28.03548         1.28409
C          0.20540        27.40784         0.61885
C          1.18137        29.47467         1.65428
C          0.15209        30.37677         1.12248
C          1.40245        32.39866         1.80573
C          0.22511        31.72623         1.30056
C          1.46520        33.83409         1.97082
C          0.39696        34.72319         1.68104
C          1.73284        36.67070         2.32662
C          0.53448        36.09670         1.82425
C          1.96323        38.11489         2.31230
C          4.15685         3.94662        -2.48389
C          2.99549         4.67426        -2.82656
C          4.19113         6.75863        -2.26219
C          2.99746         6.09792        -2.69042
C          4.12672         8.19037        -1.97997
C          2.87537         8.88582        -2.17863
C          3.98340        10.99400        -1.26144
C          2.73565        10.27884        -1.67627
C          4.05780        12.47907        -1.40410
C          2.84855        13.27271        -1.74700
C          3.99120        15.31358        -0.81514
C          2.85331        14.72160        -1.42842
C          3.98233        16.70894        -0.53301
C          2.85919        17.48355        -0.92580
C          3.93431        19.52347         0.13797
C          2.91885        18.94650        -0.76102
C          3.80098        20.87175         0.58767
C          2.61338        21.63279         0.31168
C          3.65916        23.63225         1.47279
C          2.38753        22.93721         1.05144
C          3.63306        25.07025         1.70770
C          2.44536        25.86855         1.39209
C          3.58258        27.94980         2.25323
C          2.39786        27.26142         1.67258
C          3.72604        29.40919         2.08037
C          2.48672        30.17947         2.07847
C          3.84919        32.23500         2.23058
C          2.56758        31.63625         1.99822
C          3.81534        33.56145         2.67953
C          2.66420        34.38792         2.51971
C          4.66292        36.73090         2.34303
C          2.72445        35.78541         2.76339
C          4.41043        38.01190         1.78384
C          3.16289        38.71644         2.08451
C          6.47236         3.72577        -1.78883
C          5.37098         4.58257        -2.19255
C          6.63657         6.76372        -1.86769
C          5.40254         6.02528        -2.14169
C          6.48086         8.07129        -1.11210
C          5.26760         8.87113        -1.52357
C          6.42258        11.01712        -0.97520
C          5.27872        10.28317        -1.28526
C          6.39509        12.40772        -0.60851
C          5.21682        13.15817        -0.79026
C          6.31417        15.16748         0.07926
C          5.17244        14.54005        -0.51163
C          6.24340        16.55267         0.45670
C          5.10174        17.32317         0.14119
C          6.10299        19.30308         1.26358
C          5.02959        18.71688         0.52331
C          6.03274        20.69562         1.61203
C          4.85812        21.46549         1.34590
C          5.92729        23.46494         2.47719
C          4.77387        22.85101         1.76143
C          5.98017        24.95219         2.51125
C          4.78347        25.70475         2.14504
C          6.14472        27.84004         2.12696
C          4.85837        27.15575         2.40827
C          6.16941        29.23437         1.88512
C          4.96567        30.03672         2.00189
C          6.30240        32.09696         1.62748
C          5.07699        31.48509         2.01738
C          6.47597        33.53799         1.49480
C          5.71153        34.47603         2.19792
C          6.52236        36.34547         0.81462
C          5.63555        35.85693         1.81982
C          6.44173        37.72780         0.42474
C          5.34731        38.52330         0.88091
C          8.91648         3.37252        -1.36618
C          7.81369         4.02546        -1.97723
C          9.14624         6.99698        -1.81698
C          7.88181         6.30937        -2.19884
C          9.03853         8.29838        -1.12249
C          7.72043         8.90225        -1.09048
C          8.80862        10.92873        -0.18698
C          7.76342        10.37887        -1.13906
C          8.76086        12.28715         0.14041
C          7.57122        13.05312        -0.09127
C          8.61785        15.01689         1.03000
C          7.50271        14.41943         0.30250
C          8.50758        16.39503         1.48599
C          7.35577        17.14372         1.15830
C          8.35290        19.09451         2.26397
C          7.26383        18.51719         1.55902
C          8.12226        20.39955         2.77033
C          7.14215        21.26339         2.30516
C          8.51897        23.46611         2.50857
C          7.21861        22.71117         2.68243
C          8.53062        24.83048         2.16581
C          7.33360        25.66289         2.38098
C          8.49535        27.65574         1.43103
C          7.31910        27.07404         1.95259
C          8.49584        29.04443         1.10794
C          7.35741        29.84932         1.40404
C          8.46237        31.81488         0.40956
C          7.38194        31.26414         1.15257
C          8.43849        33.20133         0.05237
C          7.47687        34.06208         0.59328
C          8.49498        36.01758        -0.59542
C          7.49936        35.47539         0.26230
C          8.49450        37.42867        -0.88765
C          7.43805        38.24791        -0.42094
C         11.36082         3.50726        -0.69125
C         10.23355         3.89725        -1.39026
C         11.30388         6.59739        -0.59541
C         10.32221         6.18504        -1.49034
C         11.20518         7.90863         0.04482
C         10.07903         8.76616        -0.17242
C         10.62988        10.72273         1.36070
C          9.85209        10.09624         0.31362
C         10.86415        12.05775         1.47135
C         10.02241        12.97594         0.61988
C         10.78534        14.79139         2.29408
C          9.75696        14.28835         1.30169
C         10.87290        16.29447         2.27031
C          9.66642        17.02854         2.06525
C         10.87411        19.12261         2.52927
C          9.62681        18.42628         2.37216
C         10.96982        20.57060         2.48168
C          9.93268        21.43171         2.87439
C         10.91670        23.34647         1.78778
C          9.77106        22.75284         2.39687
C         10.88297        24.71283         1.37988
C          9.69294        25.47142         1.60006
C         10.81615        27.43961         0.60118
C          9.67220        26.84781         1.21826
C         10.78437        28.81910         0.20520
C          9.63379        29.62386         0.46778
C         10.68882        31.50952        -0.68639
C          9.58300        30.98040         0.03814
C         10.55175        32.82659        -1.34213
C          9.39694        33.72119        -0.94414
C         10.58476        35.74708        -1.85885
C          9.51695        35.18582        -1.15518
C         10.64366        37.17976        -2.07278
C          9.56085        37.97720        -1.63000
C         13.79888         3.69146        -0.60506
C         12.55328         4.34649        -0.61532
C         13.71741         6.43953        -0.08547
C         12.51174         5.77554        -0.44009
C         13.67929         7.80819         0.38091
C         12.42170         8.39759         0.66560
C         13.53812        10.44192         1.51596
C         12.44417         9.56540         1.46230
C         13.38018        11.91169         1.82601
C         12.04016        12.56328         2.30015
C         13.30548        14.76700         2.73401
C         12.11707        14.08429         2.19935
C         13.34857        16.25701         2.70842
C         12.09251        16.95774         2.49073
C         13.33677        19.06724         2.24573
C         12.09184        18.39161         2.44510
C         13.33970        20.44147         1.87899
C         12.13562        21.19753         1.96648
C         13.28805        23.19305         1.10359
C         12.11198        22.58199         1.64035
C         13.24397        24.53625         0.64486
C         12.03647        25.30419         0.78687
C         13.14140        27.25892        -0.25865
C         11.99600        26.66575         0.37209
C         13.07812        28.59956        -0.67158
C         11.91851        29.39993        -0.42946
C         13.06181        31.41706        -1.39924
C         11.86618        30.76393        -0.86865
C         13.04697        32.75263        -1.83612
C         11.75069        33.45050        -1.99357
C         13.02310        35.60478        -2.71908
C         11.72057        34.92361        -2.33347
C         12.97472        37.10893        -3.08137
C         11.74549        37.79770        -2.69302
C         16.29149         3.76989        -0.72334
C         15.01876         4.38167        -0.43085
C         16.16710         6.44832         0.35712
C         14.95172         5.75018        -0.06270
C         16.15007         7.90021         0.57056
C         14.86164         8.53621         0.70832
C         16.04511        10.54681         1.61267
C         14.77987         9.88966         1.13336
C         15.96563        12.03937         1.80550
C         14.64954        12.68592         2.03663
C         15.93496        14.72498         2.99863
C         14.62393        14.00675         2.75919
C         15.85494        16.31199         3.08940
C         14.55431        16.96198         2.75470
C         15.77277        19.07387         2.09705
C         14.57464        18.36919         2.37422
C         15.76872        20.38986         1.57488
C         14.53570        21.08847         1.48001
C         15.68954        23.05134         0.55353
C         14.50347        22.44846         1.04878
C         15.60786        24.35589         0.00524
C         14.40744        25.10284         0.04483
C         15.50504        27.05785        -0.95457
C         14.36006        26.47341        -0.43974
C         15.52723        28.47505        -1.36378
C         14.25281        29.24678        -1.27591
C         15.51167        31.37862        -1.61747
C         14.29845        30.72040        -1.37126
C         15.51874        32.75131        -1.98209
C         14.26244        33.43019        -2.13353
C         15.50235        35.47200        -2.39895
C         14.25863        34.83746        -2.40789
C         15.44705        37.60964        -3.22052
C         14.12834        37.96810        -3.50636
C         18.72005         3.99485        -1.20684
C         17.47679         4.47766        -0.65994
C         18.67364         6.66874        -0.14665
C         17.51001         5.78789         0.01593
C         18.61771         8.02113         0.27637
C         17.35273         8.61155         0.67312
C         18.46379        10.78378         0.97427
C         17.31420        10.01717         0.98904
C         18.27199        12.26719         1.03959
C         17.11513        12.77683         1.85624
C         18.41284        14.39363         3.19150
C         17.19616        14.02384         2.62226
C         18.32565        16.58907         3.24436
C         17.09048        17.08697         2.88821
C         18.31171        19.08541         1.93081
C         17.07629        18.56570         2.62312
C         18.25114        20.34290         1.27892
C         16.98864        21.04066         1.15590
C         18.14760        22.94413         0.07293
C         16.93900        22.32713         0.58462
C         18.10164        24.22624        -0.53712
C         16.78137        24.86626        -0.72256
C         17.98533        26.96404        -1.65923
C         16.71464        26.27321        -1.24937
C         18.01897        28.47893        -1.74720
C         16.83892        29.19039        -1.09479
C         18.08994        31.38062        -1.74493
C         16.80789        30.69801        -1.35680
C         18.02507        32.75856        -2.27277
C         16.75869        33.41961        -2.30704
C         17.90131        35.50993        -3.15300
C         16.71993        34.80133        -2.59834
C         17.86746        36.97802        -3.66475
C         16.66296        37.85232        -3.85168
C         19.84546         4.77088        -1.21315
C         21.00448         6.94252        -0.77417
C         19.84974         6.12910        -0.71661
C         20.98519         8.23633        -0.27440
C         19.80223         8.81594         0.24535
C         20.94583        10.85176         1.11369
C         19.76763        10.18022         0.76093
C         21.01618        12.07021         1.84092
C         20.04044        12.53180         2.72465
C         20.81203        14.89218         2.93006
C         19.78186        13.94206         2.97350
C         20.72199        16.29698         2.77491
C         19.57280        17.09786         2.74502
C         20.70474        18.99188         1.52802
C         19.53865        18.40423         2.08074
C         20.65790        20.22433         0.90553
C         19.44151        20.93725         0.77077
C         20.54628        22.88163        -0.35510
C         19.38823        22.24987         0.16101
C         20.49762        24.15088        -0.89763
C         19.27741        24.86966        -1.00083
C         20.43172        26.96528        -1.73408
C         19.26360        26.24258        -1.50620
C         20.46349        28.36784        -1.91839
C         19.32674        29.17249        -1.81428
C         20.49337        31.35098        -2.20968
C         19.34132        30.60492        -1.91333
C         20.45091        32.72706        -2.44367
C         19.23305        33.45443        -2.52056
C         20.36621        35.59933        -3.11052
C         19.21682        34.87131        -2.89327
C         20.33167        36.99635        -3.41794
C         19.16553        37.66566        -3.63811
O         17.58290        31.38635        -0.30816
O          4.06584        27.53396         3.58004
O          0.99293        11.82258        -0.83224
O          9.36130        32.92152        -2.18142
O          6.30029        22.94224         3.79980
O          1.49557        29.70964         3.05752
O          3.85728        36.31267         3.41768
O         15.55965        36.81570        -2.06099
O          8.07446         5.09663        -2.87084
O         18.38757        15.47010         4.09022
O          3.81969        12.91270        -2.80252
O         13.80896        14.03266         3.97189
O          8.98268        20.90610         3.75466
O          6.67645        25.47333         3.67379
O         10.43523         5.02984        -2.22786
O          4.96652        34.06097         3.31879
O         15.88369        15.43489         4.25207
O         16.96221         5.74249         1.37409
O          9.52526         8.21465        -2.60856
O         17.78145        35.83143        -4.59331
O         11.42757        33.89867        -3.34633
O         13.93547        12.71973         0.73410
O          2.76852        19.67272        -2.03973
O          3.08494        10.43729        -0.25026
O         18.87978        13.04801         0.31746
O         16.45112        25.12966        -2.13961
O         11.30910         9.84823         2.21699
O         12.87406        36.03227        -4.11498
O         17.76871        27.67956        -2.93159
O         14.76992        28.70750        -2.57935
O         17.02973        29.00069         0.33600
H         17.47753        29.81870         0.66718
O          1.75030        22.53260         2.33453
H          0.87430        22.14997         2.11327
O         19.21014        11.64247         3.33143
H         18.58016        12.10417         3.92199
O          8.23467        10.74719        -2.49263
H          8.81925        10.01854        -2.81253
O         10.80886        13.29944        -0.58363
H         10.21198        13.75467        -1.21491
O          6.23220         7.66833         0.29941
H          5.77831         8.41503         0.74691
O         16.15341        10.07368         3.02177
H         16.27462         9.09887         2.99080
O         10.24043        14.45671         3.62883
H         10.49956        13.52180         3.83177
O         11.81698        12.21005         3.69285
H         12.52313        12.67185         4.21308
O         17.15222        19.16051         3.98402
H         16.41785        18.78037         4.51312
H          1.83435         2.91039        -3.36996
H         -0.20799         4.21707        -3.96445
H         -0.23982         6.66603        -3.72878
H         -0.23941         8.55169        -3.60014
H         -0.47598        10.88642        -3.01439
H         -0.36235        13.03358        -3.08206
H         -0.15821        15.45077        -2.92918
H         -0.39759        17.16410        -2.01031
H         -0.50447        19.51638        -1.46275
H         -0.36972        21.50486        -1.38642
H         -0.43961        23.86074        -0.79728
H         -0.62684        25.60078        -0.15276
H         -0.68126        27.98709         0.32908
H         -0.70827        29.95523         0.58362
H         -0.61223        32.34538         0.94818
H         -0.54940        34.32591         1.28994
H         -0.29003        36.75861         1.52276
H          1.06849        38.75554         2.36861
H          4.11902         2.84727        -2.50212
H          3.17717        39.81159         1.96636
H          6.20798         2.77196        -1.30680
H          5.22008        39.53715         0.47382
H          8.70926         2.51794        -0.70686
H          7.41865        39.31222        -0.69730
H         11.38981         2.52571        -0.19565
H          9.57399        39.05807        -1.83382
H         13.82453         2.60717        -0.78887
H         11.75061        38.89756        -2.74080
H         16.29013         2.75589        -1.15129
H         13.91336        38.67089        -4.32559
H         18.74583         2.98130        -1.63342
H         16.70128        38.52822        -4.71946
H         20.78001         4.37465        -1.63679
H         21.92989         6.53620        -1.20713
H         21.90634         8.83255        -0.32894
H         21.90346        10.45399         0.74060
H         21.84323        12.75463         1.59800
H         21.83336        14.48734         2.84553
H         21.67582        16.77656         2.50713
H         21.67327        18.48192         1.61496
H         21.59291        20.64984         0.51813
H         21.51576        22.36765        -0.31956
H         21.42977        24.59423        -1.27133
H         21.40397        26.45483        -1.69573
H         21.44926        28.83745        -2.04457
H         21.46515        30.84244        -2.28091
H         21.40100        33.23958        -2.64386
H         21.35341        35.13575        -2.97900
H         21.28398        37.54570        -3.43181
H         19.17311        38.75937        -3.75571
