         429
 CSIRO Nanostructure Databank - Neutral Graphene Oxide Data Set
C          1.08112         2.16998         0.59763
C          1.07250         3.56072         0.45065
C          2.28036         1.46974         0.63355
C          2.27483         4.29369         0.33052
C          1.11094         6.50416         0.15306
C          1.13348         7.88576        -0.02310
C          2.27474         5.72194         0.12297
C          2.36151         8.61505        -0.13155
C          1.19163        10.85539        -0.11379
C          1.20306        12.18582        -0.37957
C          2.38428        10.04495        -0.22258
C          2.41994        12.83243        -0.99282
C          1.27590        15.10023        -1.09107
C          1.31680        16.49698        -1.15472
C          2.44255        14.34606        -0.92561
C          2.54294        17.18702        -1.09210
C          2.61322        18.62785        -1.22639
C          3.51649         2.16200         0.54391
C          3.51739         3.58101         0.39914
C          4.74603         1.44712         0.60261
C          4.77075         4.29691         0.40448
C          3.55983         6.38260        -0.31079
C          3.58098         7.88607        -0.13361
C          4.77047         5.68894         0.25567
C          4.82108         8.58024        -0.11416
C          3.63934        10.73259        -0.31038
C          3.67957        12.15785        -0.49515
C          4.83862         9.99934        -0.17521
C          4.89760        12.87459        -0.40978
C          3.69030        15.02139        -0.83257
C          3.73997        16.44821        -0.92758
C          4.89301        14.28381        -0.59409
C          5.01274        17.13919        -0.97935
C          3.80342        19.29149        -1.25143
C          5.06183        18.58934        -1.14905
C          5.97469         2.11104         0.53750
C          6.00935         3.54741         0.46916
C          7.21650         1.39424         0.55876
C          7.25535         4.18536         0.32310
C          5.99460         6.45346         0.41459
C          6.06181         7.87043         0.03693
C          7.31001         5.64903         0.40188
C          7.32055         8.51451        -0.11736
C          6.14739        10.69657         0.08792
C          6.15173        12.17222        -0.21282
C          7.32408         9.96427        -0.55737
C          7.37762        12.81423        -0.21549
C          6.13313        15.03557        -0.39936
C          6.18604        16.43747        -0.83239
C          7.41926        14.28328        -0.16348
C          7.49612        17.05193        -1.23574
C          6.27436        19.25549        -1.10130
C          7.53863        18.55972        -1.05435
C          8.43374         2.03117         0.43859
C          8.48293         3.45613         0.26243
C          9.70332         1.21302         0.53754
C          9.73702         4.12266         0.10550
C          8.49365         6.34879        -0.14307
C          8.52198         7.81692        -0.12414
C          9.76862         5.55405        -0.26922
C          9.79118         8.48003        -0.61826
C          8.63483        10.67000        -0.28171
C          8.63612        12.08701        -0.19005
C          9.82983         9.95069        -0.28337
C          9.87504        12.78032        -0.13830
C          8.70312        14.98992        -0.38034
C          8.70334        16.32648        -0.68629
C          9.93100        14.21965        -0.22315
C          9.98675        17.02806        -0.83402
C          8.73670        19.22730        -1.02075
C         10.03709        18.52113        -1.03649
C         10.98097         1.98574         0.29032
C         10.95954         3.41593         0.15265
C         12.17387         1.29776         0.21383
C         12.20668         4.11959        -0.00426
C         11.03886         6.30940        -0.19119
C         11.04903         7.72738        -0.22544
C         12.22531         5.57150        -0.04469
C         12.26062         8.43297         0.00283
C         11.07260        10.61713        -0.09829
C         11.09723        12.04457        -0.04862
C         12.29309         9.87282         0.01754
C         12.34934        12.72761         0.06022
C         11.16253        14.87000        -0.20506
C         11.16896        16.34829        -0.24201
C         12.39122        14.15974        -0.01113
C         12.45074        17.09735        -0.21003
C         11.31353        19.22560        -0.78228
C         12.49721        18.54872        -0.55439
C         13.42609         1.97392         0.02260
C         13.40513         3.40159        -0.07916
C         14.64195         1.26802        -0.02474
C         14.67364         4.13191        -0.42401
C         13.47265         6.26417         0.13364
C         13.47831         7.71009         0.23494
C         14.66051         5.53405         0.11787
C         14.69096         8.41512         0.41025
C         13.52600        10.56597         0.18772
C         13.56016        11.99904         0.19573
C         14.74348         9.83508         0.34930
C         14.80445        12.69152         0.38576
C         13.63091        14.83877         0.05122
C         13.69027        16.27780        -0.28658
C         14.84257        14.14194         0.31280
C         14.99051        17.02179        -0.20519
C         13.76428        19.19887        -0.39732
C         14.94910        18.50417        -0.11826
C         15.90891         1.94174        -0.05325
C         15.92506         3.36522        -0.08623
C         17.13430         1.23444         0.01249
C         17.15384         4.06085         0.00237
C         15.90902         6.15427         0.52030
C         15.93015         7.68476         0.70013
C         17.17121         5.47201         0.22234
C         17.23024         8.37710         0.58524
C         15.98448        10.53514         0.54211
C         15.98792        11.95455         0.58919
C         17.23076         9.81520         0.63353
C         17.22736        12.65859         1.08982
C         16.06520        14.85594         0.49902
C         16.14623        16.28531         0.33658
C         17.27919        14.14582         0.82133
C         17.27194        17.00631         0.71393
C         16.16113        19.15761         0.18852
C         17.31998        18.44257         0.56699
C         18.38434         1.90847        -0.01046
C         18.38667         3.34534        -0.03829
C         19.62569         1.22599         0.05286
C         19.60841         4.07038        -0.12677
C         18.37627         6.19342         0.21925
C         18.39617         7.62673         0.43155
C         19.57764         5.49165        -0.08607
C         19.71055         8.29937         0.52701
C         18.46245        10.53635         0.66398
C         18.50511        11.93676         0.73709
C         19.74328         9.80397         0.73112
C         19.73969        12.65535         0.73577
C         18.45019        14.82168         1.08802
C         18.36670        16.29362         1.46987
C         19.72008        14.06462         1.20183
C         19.70010        17.03954         1.45982
C         18.54044        19.14041         0.78920
C         19.73491        18.48679         1.11881
C         20.86059         1.92803         0.05526
C         20.85230         3.35305        -0.11936
C         22.11158         1.27411         0.21115
C         22.08810         4.05984        -0.09529
C         20.76380         6.26196        -0.45245
C         20.85436         7.67068        -0.13497
C         22.13110         5.46130        -0.52135
C         22.01175         8.43033        -0.58186
C         21.00898        10.56362         0.44588
C         20.95989        12.04174         0.44282
C         22.16890         9.87565        -0.20517
C         22.22245        12.75102         0.31463
C         21.04086        14.78810         1.28973
C         21.00234        16.28985         1.40299
C         22.26831        14.16616         0.70576
C         22.23534        17.04341         1.11574
C         20.96942        19.16282         1.18549
C         22.21799        18.48904         1.25812
C         23.31950         2.00244         0.34290
C         23.27950         3.43289         0.26482
C         24.59094         1.37717         0.45120
C         24.46540         4.24761         0.72858
C         23.36685         6.23709        -0.33407
C         23.33564         7.64932        -0.75643
C         24.46887         5.68359         0.24962
C         24.61531         8.41401        -0.73503
C         23.24716        10.73045        -0.87194
C         23.37636        12.08915        -0.11407
C         24.57310         9.91880        -0.94867
C         24.67327        12.85758         0.02696
C         23.39672        14.93990         0.52724
C         23.40341        16.35339         0.86957
C         24.57988        14.38008        -0.28647
C         24.66959        17.05386         1.15374
C         23.43797        19.19370         1.32126
C         24.68782        18.52438         1.31106
C         25.80464         2.12204         0.42639
C         25.79175         3.56053         0.48188
C         27.04195         1.45151         0.32728
C         26.98635         4.29593         0.46912
C         25.66312         6.51346         0.67015
C         25.75214         7.85038        -0.02820
C         26.98214         5.75835         0.53465
C         26.90021         8.68722         0.28372
C         25.82727        10.65597        -0.72586
C         25.83400        12.00705        -1.32881
C         26.96913        10.08022        -0.22455
C         27.09318        12.71035        -1.15152
C         25.88893        15.12520        -0.00378
C         25.96938        16.34551         0.82729
C         27.05243        14.82473        -0.67077
C         27.18080        17.18440         0.75192
C         25.91201        19.19219         1.42922
C         27.17218        18.54728         1.19336
C         28.26465         2.16381         0.29373
C         28.24084         3.60083         0.37441
C         29.50424         1.49137         0.22622
C         29.47518         4.30453         0.39674
C         28.15953         6.46825         0.56280
C         28.20446         7.95277         0.61952
C         29.45114         5.75829         0.62373
C         29.46132         8.67134         0.29862
C         28.22850        10.80858        -0.14311
C         28.23887        12.24173        -0.47630
C         29.40579        10.11386         0.11546
C         29.42995        13.03986        -0.33859
C         28.33598        15.29316        -0.25096
C         28.37983        16.59761         0.32589
C         29.48762        14.47109        -0.32027
C         29.63059        17.26582         0.46793
C         28.40200        19.24190         1.26273
C         29.64475        18.62285         0.94401
C         30.74026         2.19328         0.25411
C         30.71002         3.64494         0.29802
C         31.96045         1.51440         0.29587
C         31.94802         4.38459         0.13744
C         30.73643         6.54348         0.41511
C         30.64642         7.98667         0.13432
C         31.94592         5.79874         0.02332
C         31.86296         8.70603        -0.40040
C         30.66958        10.86197         0.27674
C         30.68688        12.35411         0.05105
C         31.96124        10.10708         0.17728
C         31.98445        13.01394        -0.25540
C         30.75978        15.14879        -0.14862
C         30.81226        16.56511         0.15166
C         31.95077        14.43752        -0.32984
C         32.06645        17.24094         0.28809
C         30.89451        19.27408         1.06310
C         32.10277        18.60762         0.74150
C         33.24463         2.24397         0.51422
C         33.18207         3.68169         0.06654
C         34.43494         1.52777        -0.04767
C         34.38109         4.37828        -0.15463
C         33.14897         6.51118        -0.23525
C         33.16703         7.95512        -0.29312
C         34.35850         5.77146        -0.30840
C         34.36662         8.67214        -0.45911
C         33.24549        10.85166        -0.07734
C         33.19287        12.30518        -0.32398
C         34.42991        10.08491        -0.51729
C         34.43163        12.94592        -0.68405
C         33.19534        15.19177        -0.54260
C         33.27019        16.57215        -0.03350
C         34.46288        14.42878        -0.78588
C         34.52023        17.19714         0.12974
C         33.37049        19.24342         0.85418
C         34.56108        18.56362         0.56801
C         35.62848         2.18465        -0.21931
C         35.71072         3.67303         0.06459
C         36.85537         1.48040        -0.37896
C         36.89943         4.34064        -0.62391
C         35.66894         6.49666        -0.21256
C         35.60875         7.89766        -0.83028
C         36.79263         5.70996        -0.85139
C         36.92586         8.67416        -0.60191
C         35.63663        10.78951        -0.88392
C         35.60388        12.24256        -0.92044
C         36.82043        10.08517        -1.15609
C         36.81278        13.06319        -1.36807
C         35.73763        15.10933        -0.48103
C         35.74925        16.47018        -0.08442
C         36.92134        14.37847        -0.62533
C         37.00632        17.11493         0.10103
C         35.84801        19.20204         0.67227
C         37.01775        18.52616         0.43354
C         38.08329         2.16646        -0.38075
C         38.12396         3.56921        -0.68404
C         39.30138         1.47234        -0.05731
C         39.43135         4.17292        -0.75197
C         37.79904         6.51973        -1.48470
C         38.02324         7.85410        -1.25138
C         39.65171         5.44902        -1.31645
C         39.35249         8.45021        -1.56192
C         38.07540        10.76280        -1.53352
C         38.13106        12.27717        -1.45326
C         39.36970         9.98088        -1.57207
C         39.40459        12.88567        -0.96328
C         38.16504        14.98981        -0.36007
C         38.19812        16.36207        -0.02391
C         39.40326        14.19838        -0.42508
C         39.55849        17.01135         0.12437
C         38.33152        19.27773         0.44700
C         39.50876        18.38798         0.76154
C         40.47596         2.14827         0.15318
C         40.56605         3.54401        -0.15738
C         41.72324         4.33228         0.07664
C         40.69793         6.30721        -0.94455
C         40.63442         7.74211        -1.26094
C         41.75337         5.69226        -0.21394
C         41.78404         8.50846        -1.24947
C         40.62333        10.68385        -1.26455
C         40.59752        12.10848        -0.91557
C         41.78369         9.93168        -1.24848
C         41.77319        12.71625        -0.42985
C         40.58099        14.74239         0.14336
C         40.46936        16.04827         0.90889
C         41.76592        14.00392         0.09415
C         41.76469        16.71377         1.30931
C         40.58838        18.85238         1.43286
C         41.77273        18.02679         1.61523
O          6.78792         6.17822         1.63780
O         24.79175         9.03481        -2.07995
O          6.68732        14.83952         0.98856
O         25.40926        16.30194         2.18395
O         15.85580         6.78906         1.84990
O         39.41422         9.19852        -2.81797
O         20.47145        14.15817         2.47641
O         10.18840        17.56059        -2.19740
O         38.12565        11.60660        -2.75366
O         27.09586        13.95018        -1.77143
O         22.15666        10.04887         1.23726
O         22.51109         8.00754        -1.88196
O         21.37313         5.77051        -1.69245
O         19.89988         8.90914         1.87008
O         32.83715        10.35426         1.28593
O         38.73955         5.86199        -2.29285
O          8.93219         5.82746        -1.46807
O         20.45107        16.75574         2.68726
O         11.67536        16.90789         1.02874
O         25.13480        12.23840        -2.42838
O         33.72985        15.00601        -1.91569
O         30.27204         6.18219         1.77008
O         30.62755        11.78052         1.41314
O         27.40741         8.55637         1.69308
O         14.47835        16.52496        -1.49872
O         22.81627        11.03166        -2.19438
H         23.60378        11.46873        -2.63632
O         36.49346        13.49689        -2.72363
H         36.83193        12.79637        -3.33063
O         17.12497        12.58323         2.55805
H         17.20003        11.63904         2.81427
O         31.62855         8.93625        -1.83633
H         31.73377         8.08076        -2.30417
O         25.47016         6.74930         2.11780
H         26.19903         7.36657         2.39257
O         38.27618        20.40412         1.32243
H         38.10339        20.08109         2.22996
O         35.48797         7.67050        -2.26125
H         35.55015         8.53733        -2.71653
O         24.21136        14.57662        -1.65414
H         24.59598        13.82779        -2.20193
O         35.95553         6.59033         1.21537
H         35.99586         5.65845         1.56422
O         35.94421         3.80431         1.51294
H         35.20410         3.30795         1.95189
O          9.68871         8.41787        -2.09235
H          9.53994         7.46269        -2.30971
O          2.36167        12.52597        -2.44032
H          2.40571        11.54977        -2.53014
O         33.50021         2.32516         1.99914
H         32.69208         2.70767         2.40665
O         17.91709        16.28996         2.85823
H         18.70626        16.05095         3.39905
O         39.78958        15.70653         2.15285
H         39.79738        16.50474         2.72201
O         24.29232         4.31144         2.18614
H         24.78167         5.11328         2.50492
O          7.58588        16.83128        -2.68917
H          8.49196        17.13700        -2.95073
O          7.14502         9.95794        -1.99447
H          7.93644         9.50396        -2.37441
O         40.13240        17.15888        -1.20165
H         39.49018        17.63721        -1.76562
O         37.22622         8.86085         0.80237
H         36.87563         8.07715         1.29777
O         14.68901         4.26110        -1.90656
H         14.63493         3.35390        -2.27624
O          3.63416         6.16872        -1.78587
H          2.81889         6.55471        -2.17228
O          9.63295         0.07433        -0.33565
H          9.56307         0.40001        -1.25634
O         25.29009        12.63889         1.23220
H         24.96997        11.81475         1.65410
O          6.36537        10.57361         1.52957
H          5.71412        11.14510         1.98802
H          0.12768         1.62886         0.67431
H          0.10462         4.07796         0.40240
H          2.28265         0.37574         0.74204
H          0.13750         6.02801         0.33993
H          0.17959         8.42907        -0.01152
H          0.26095        10.38821         0.23924
H          0.28170        12.77215        -0.25262
H          0.30500        14.59516        -1.19092
H          0.38423        17.06324        -1.29131
H          1.66954        19.18496        -1.32307
H          4.72345         0.35064         0.68920
H          3.82338        20.38574        -1.36268
H          7.19178         0.29930         0.66316
H          6.28601        20.35655        -1.10758
H          9.75532         0.79349         1.58156
H          8.74613        20.32792        -0.97699
H         12.16920         0.20141         0.30555
H         11.32342        20.32227        -0.87629
H         14.62660         0.17001         0.04130
H         13.79676        20.29800        -0.44831
H         17.11746         0.13552         0.06233
H         16.19934        20.25710         0.16817
H         19.63224         0.12911         0.13927
H         18.56139        20.22586         0.60957
H         22.13873         0.17632         0.27835
H         20.97304        20.25975         1.09510
H         24.64810         0.27862         0.45360
H         23.41969        20.29040         1.40472
H         27.05824         0.35239         0.28311
H         25.90854        20.27420         1.62924
H         29.51643         0.39186         0.19252
H         28.40156        20.29284         1.58949
H         31.96822         0.41426         0.30136
H         30.93327        20.31390         1.42070
H         34.38135         0.43709        -0.18863
H         33.41438        20.29299         1.18174
H         36.84855         0.38075        -0.32819
H         35.89175        20.26926         0.93777
H         39.24344         0.39249         0.14378
H         38.48987        19.69172        -0.59148
H         41.36550         1.62138         0.52709
H         42.59090         3.86507         0.56408
H         42.62777         6.28619         0.08755
H         42.75729         8.00930        -1.13612
H         42.76019        10.41986        -1.12905
H         42.71567        12.15463        -0.40880
H         42.69932        14.41176         0.50387
H         42.66123        16.10508         1.49469
H         40.59191        19.88232         1.82010
H         42.68374        18.50597         2.00231
