         420
 CSIRO Nanostructure Databank - Neutral Graphene Oxide Data Set
C         28.02692        27.31623        -0.92865
C         27.94820        28.73737        -0.76483
C         26.80579        29.48085        -1.02082
C         27.90277        31.63060        -0.51887
C         26.79142        30.89451        -0.90612
C         27.92897        33.08047        -0.54912
C         26.69752        33.81487        -0.43709
C         27.84163        35.98547        -0.61296
C         26.66155        35.17234        -0.31628
C         27.93298        37.40283        -0.19589
C         26.77419        38.08791         0.21071
C         28.04236        40.13207         0.57660
C         26.82945        39.41507         0.60664
C         28.08822        41.52771         0.96167
C         26.95896        42.19814         1.48918
C         28.16450        44.30702         1.53998
C         27.00021        43.55016         1.79091
C         28.20705        45.71636         1.77782
C         30.39857        27.28108        -0.25469
C         29.16801        26.62099        -0.61774
C         30.42160        28.69878        -0.21072
C         29.13030        29.41759        -0.21197
C         30.43387        31.65884         0.14302
C         29.10419        30.91953        -0.04425
C         30.40598        33.09980        -0.33431
C         29.15828        33.76673        -0.52793
C         30.42965        35.95889        -0.55716
C         29.17628        35.21763        -0.75827
C         30.42338        37.36819        -0.42510
C         29.17955        38.07779        -0.19884
C         30.46425        40.18392         0.03587
C         29.22964        39.46601         0.14073
C         30.47711        41.59161         0.30668
C         29.29833        42.25357         0.77717
C         30.49043        44.41821         0.71184
C         29.32460        43.65810         1.02429
C         30.49832        45.84623         0.91011
C         29.32386        46.44907         1.48011
C         32.88806        24.46521         0.17259
C         31.68071        25.15599         0.07679
C         32.80828        27.33826         0.34817
C         31.60090        26.56172         0.03267
C         32.85045        28.77541         0.02495
C         31.63227        29.43314        -0.18548
C         32.88978        31.63075        -0.32836
C         31.58701        30.90382        -0.55590
C         32.87892        33.05594        -0.37486
C         31.61528        33.78506        -0.43250
C         32.86502        35.95340        -0.48654
C         31.64604        35.23590        -0.51047
C         32.88661        37.35824        -0.52131
C         31.66309        38.07278        -0.40673
C         32.91084        40.20883        -0.41398
C         31.68294        39.50577        -0.28173
C         32.83020        41.70416        -0.62327
C         31.65018        42.34616         0.07386
C         32.78799        44.51687        -0.27748
C         31.64256        43.73770         0.24161
C         32.74103        46.02371        -0.20730
C         31.63305        46.61968         0.57468
C         32.84587        48.74171         0.76903
C         31.74658        47.98056         1.00745
C         35.46402        22.99979         0.01863
C         35.38106        24.44688         0.02367
C         34.14156        25.11749         0.19714
C         35.37896        27.33105         0.14135
C         34.15133        26.57245         0.41657
C         35.32591        28.77146         0.07198
C         34.10224        29.47316         0.00523
C         35.32177        31.64059        -0.06090
C         34.09784        30.92375        -0.13643
C         35.32889        33.06443        -0.28499
C         34.09145        33.75829        -0.40151
C         35.25100        35.87227        -1.22001
C         34.18273        35.25776        -0.29760
C         35.32594        37.38544        -0.96001
C         34.15969        38.07216        -0.66579
C         35.36972        40.25352        -0.69632
C         34.14143        39.53004        -0.59599
C         35.38813        41.67357        -0.14151
C         34.11435        42.45359        -0.35664
C         35.32576        44.62199        -0.26777
C         34.10169        43.82198        -0.34141
C         35.31459        46.01773        -0.19732
C         34.03627        46.81035        -0.51398
C         35.35226        48.92157         0.31067
C         34.02887        48.24205         0.05700
C         35.50433        50.12712         1.15264
C         37.89186        23.06634        -0.57821
C         36.62745        22.34432        -0.18607
C         37.85452        24.51888        -0.16876
C         36.60206        25.19282        -0.06048
C         37.83715        27.37062        -0.33042
C         36.56675        26.62741        -0.02985
C         37.79719        28.81089         0.09504
C         36.57281        29.50118         0.08087
C         37.77021        31.64082         0.22688
C         36.56093        30.93361         0.11032
C         37.76301        33.16405         0.21506
C         36.53837        33.77688        -0.40680
C         37.91182        35.82529        -1.29537
C         36.58726        35.11369        -1.06481
C         37.87870        37.36395        -1.54285
C         36.55242        38.13089        -1.33534
C         37.78576        40.35263        -1.20120
C         36.57489        39.60646        -1.06272
C         37.72403        41.81853        -1.07318
C         36.58302        42.48662        -0.55637
C         37.77776        44.65318        -0.58645
C         36.57062        43.89804        -0.43846
C         37.80795        46.06206        -0.39591
C         36.55774        46.76261        -0.17311
C         37.81707        48.87915         0.08259
C         36.59043        48.14753         0.07015
C         37.88488        50.19462         0.57258
C         36.70765        50.74372         1.21979
C         40.41824        20.26118         0.04395
C         39.23428        20.95157        -0.26237
C         40.31693        23.07398         0.21615
C         39.15729        22.33922        -0.16246
C         40.30571        24.50853         0.26635
C         39.07300        25.22583         0.04371
C         40.26101        27.35820         0.38352
C         39.07220        26.63895         0.12091
C         40.25623        28.79579         0.43095
C         39.01307        29.50650         0.29473
C         40.24122        31.62308         0.51834
C         38.99498        30.93282         0.36092
C         40.21026        33.07956         0.33583
C         39.03846        33.61437        -0.47311
C         40.39482        35.43550        -1.25194
C         39.13765        35.09592        -0.80892
C         40.39358        37.67098        -1.59631
C         39.11113        38.21538        -1.41729
C         40.30652        40.30795        -1.07784
C         39.04483        39.64569        -1.28170
C         40.56084        41.68351        -1.41344
C         38.75634        42.67610        -1.50646
C         40.22967        44.68206        -1.07607
C         38.95729        44.00484        -1.04275
C         40.26593        46.06934        -0.81108
C         39.02956        46.75212        -0.56093
C         40.33009        48.97082        -0.41554
C         39.00911        48.22084        -0.48069
C         40.33895        50.31168         0.18694
C         39.13260        50.93658         0.57309
C         40.38121        52.98267         1.06271
C         39.19001        52.29721         1.00721
C         42.79564        20.25843         0.76803
C         41.55929        20.95461         0.44654
C         42.69013        23.10900         0.90670
C         41.51977        22.37781         0.52908
C         42.68542        24.49416         0.89925
C         41.49416        25.21393         0.55939
C         42.70391        27.37953         0.69367
C         41.49240        26.65922         0.57154
C         42.71546        28.78825         0.72204
C         41.47010        29.49821         0.63933
C         42.72592        31.64049         0.73325
C         41.45906        30.93537         0.65804
C         42.77267        33.02005         0.48625
C         41.53618        33.76573         0.22352
C         42.86811        35.42484        -0.94257
C         41.61388        34.87965        -0.72786
C         42.88837        37.65603        -1.16174
C         41.59436        38.28694        -1.15336
C         42.65526        40.34822        -0.18263
C         41.48919        39.62898        -0.74718
C         42.70012        41.88422        -0.14833
C         41.55010        42.47758        -0.92969
C         42.81561        44.66081        -1.02013
C         41.51631        43.93294        -1.23849
C         42.77961        46.10128        -0.72863
C         41.54355        46.79419        -0.70068
C         42.80002        48.88126        -0.25039
C         41.57905        48.19041        -0.43618
C         42.81738        50.29682         0.04209
C         41.58697        50.97839         0.32515
C         42.85386        53.02351         0.80066
C         41.60950        52.34073         0.73898
C         43.89671        20.90927         1.19204
C         45.19184        23.09921         0.98434
C         43.91821        22.39397         1.42757
C         45.19660        24.47503         1.01619
C         43.93484        25.25402         1.31026
C         45.24460        27.38512         0.82572
C         43.98330        26.59555         0.56224
C         45.23057        28.79634         0.88170
C         43.96456        29.51832         0.84937
C         45.20819        31.67781         1.24608
C         43.95247        30.91025         0.89444
C         45.22762        33.10146         0.74117
C         44.00474        33.75255         0.41072
C         45.11047        35.97601         0.12365
C         43.99972        35.05708        -0.16057
C         45.20358        37.42428        -0.22211
C         44.00352        38.17832        -0.53484
C         45.22394        40.31689        -0.04233
C         43.94069        39.58615        -0.08240
C         45.25376        41.71209        -0.22604
C         44.02523        42.40860        -0.79036
C         45.22904        44.58743        -0.50466
C         44.05548        43.91510        -0.68465
C         45.25769        46.03801        -0.49549
C         44.01397        46.76671        -0.51712
C         45.28049        48.88006        -0.28146
C         44.03470        48.17697        -0.33572
C         45.29463        50.29617        -0.11909
C         44.04374        50.99705         0.12288
C         44.02823        52.37469         0.48752
C         47.56920        23.09239         0.35675
C         46.39320        22.40491         0.64634
C         47.67997        24.48398         0.52482
C         46.50461        25.20921         1.12150
C         47.69029        27.36683         0.67589
C         46.45797        26.67785         0.78436
C         47.68713        28.77877         0.77439
C         46.47860        29.50356         0.91769
C         47.67570        31.66855         0.76080
C         46.49620        30.94874         0.93341
C         47.69093        33.10054         0.58471
C         46.43704        33.78660         0.59783
C         47.67575        35.97376         0.32547
C         46.42606        35.25020         0.53634
C         47.63475        37.38888         0.27449
C         46.38255        38.10881         0.11689
C         47.61403        40.28906         0.35014
C         46.41335        39.57341         0.12374
C         47.63574        41.69682         0.30012
C         46.46425        42.40439        -0.06576
C         47.70732        44.62059        -0.07411
C         46.53633        43.82640        -0.56991
C         47.72612        45.99326        -0.25392
C         46.47903        46.72310        -0.43591
C         47.74851        48.85250        -0.41197
C         46.50753        48.15744        -0.39210
C         47.72873        50.25828        -0.32552
C         46.53808        50.95949        -0.16652
C         50.09688        24.55123        -0.07302
C         48.89003        25.21849         0.29707
C         50.14509        27.35492         0.21433
C         48.92190        26.63950         0.43618
C         50.19242        28.77663         0.36132
C         48.98339        29.46980         0.83210
C         50.18826        31.69326         0.35743
C         48.97993        30.98982         0.81423
C         50.14764        33.10672         0.23379
C         48.89993        33.81169         0.37615
C         50.11458        35.97029         0.10349
C         48.89412        35.25173         0.25776
C         50.09350        37.40008         0.18482
C         48.86785        38.08909         0.31627
C         50.17796        40.27072         0.63745
C         48.85910        39.53398         0.60467
C         50.19827        41.75475         0.60418
C         48.88430        42.44082         0.64460
C         50.18575        44.62996         0.35317
C         48.90042        43.94953         0.44500
C         50.21314        45.96973        -0.08416
C         48.98087        46.70166        -0.24391
C         50.24555        48.73225        -0.68050
C         49.00280        48.10254        -0.46015
C         51.26970        25.23785        -0.27771
C         52.55946        27.38333        -0.34789
C         51.33667        26.65358        -0.13918
C         52.56393        28.80467        -0.25709
C         51.36539        29.51051         0.09914
C         52.57172        31.68056        -0.20656
C         51.37435        30.96472         0.11181
C         52.56941        33.10835        -0.24108
C         51.35372        33.82353        -0.02810
C         52.55753        35.95593        -0.30799
C         51.35029        35.25555        -0.06149
C         52.51608        37.41971        -0.41442
C         51.32193        38.14661         0.04144
C         52.62562        40.25006         0.25824
C         51.38152        39.52466         0.23063
C         52.61542        41.60485         0.72872
C         51.39968        42.42051         0.74467
C         52.66543        44.69891         0.59735
C         51.39235        43.96590         0.99410
C         52.70228        45.91051        -0.13062
C         51.45899        46.64647        -0.32467
C         51.43947        48.00858        -0.65122
C         54.94549        27.40487        -0.87231
C         53.78066        26.71013        -0.65617
C         54.96599        28.82721        -0.81345
C         53.76910        29.53290        -0.51141
C         54.99256        31.67051        -0.72827
C         53.78291        30.96490        -0.47826
C         55.00057        33.11336        -0.69321
C         53.78892        33.82751        -0.47974
C         55.03306        35.98246        -0.57797
C         53.78587        35.26472        -0.48533
C         55.09482        37.39532        -0.37253
C         53.86196        38.18920        -0.41605
C         55.11408        40.19837         0.34868
C         53.86292        39.57166         0.08503
C         55.11412        41.54318         0.85244
C         53.86087        42.08846         1.18194
C         55.14885        44.58817         0.54231
C         53.89105        44.20743         1.05112
C         55.15558        45.75054        -0.26267
C         53.96559        46.42029        -0.53197
C         56.16401        29.55250        -1.05543
C         56.17565        30.92754        -1.00939
C         56.20345        33.85435        -0.86819
C         56.22259        35.22691        -0.78367
C         56.30026        38.09378        -0.11735
C         56.31674        39.44630         0.17365
C         56.29639        42.38613         0.94550
C         56.31380        43.74769         0.78101
O         37.28833        35.05575        -2.38690
O         39.56258        48.88833        -1.66897
O         37.04957        37.73520        -2.67512
O         28.42076        35.68725        -1.92059
O         32.32506        45.30665        -1.43594
O         53.86143        43.20338         2.02614
O         40.51446        36.43665        -2.21704
O         43.07744        39.78977         1.11703
O         34.55478        49.21108        -0.90423
O         45.53669        35.83452         1.52575
O         28.83120        30.05270         1.11072
O         49.53106        39.81210         1.88964
O         48.68559        43.30529         1.81999
O         42.33665        44.32053        -2.40902
O         43.02457        36.45639        -1.87389
O         53.08609        37.97038        -1.64416
O         40.65580        33.94734         1.40544
O         49.18688        30.24264         2.06716
O         39.71071        42.19503        -2.40258
O         33.44289        26.99620         1.62364
O         34.80035        35.71408        -2.57324
H         35.56877        35.92421        -3.15335
O         44.00796        42.08855        -2.21080
H         43.39437        42.74049        -2.64060
O         37.80264        33.64637         1.58938
H         36.96834        33.38218         2.03028
O         51.22892        44.13330         2.42812
H         50.33593        43.77274         2.65416
O         46.78350        43.66147        -2.02022
H         46.00583        43.17947        -2.38795
O         43.90085        25.48896         2.74323
H         43.84160        24.59337         3.16003
O         37.91917        23.06832        -2.05535
H         37.19507        23.65665        -2.35855
O         43.89899        22.59237         2.89518
H         43.15840        22.05586         3.25084
O         37.92759        27.41218        -1.81267
H         38.73877        27.91630        -2.03800
O         31.28450        30.96715        -1.98212
H         32.07808        30.67601        -2.47803
O         44.06518        26.20092        -0.84816
H         44.04560        27.01631        -1.39183
O         34.11990        46.98046        -1.94521
H         33.60831        46.24439        -2.35597
O         45.16921        31.77785         2.71803
H         45.95492        32.29354         2.99983
O         30.72359        31.71813         1.55395
H         30.18639        31.00712         1.98098
O         34.64139        35.55184         1.06132
H         33.95395        35.23711         1.68550
O         46.75391        25.22199         2.59155
H         45.91612        25.54512         3.00484
O         42.65567        42.33116         1.21640
H         42.91290        41.55775         1.77464
O         39.08909        32.93968        -1.76112
H         38.44303        33.40406        -2.34766
O         35.48451        41.49655         1.32430
H         36.34338        41.06135         1.51109
O         32.56609        41.86360        -2.06313
H         32.38424        42.81438        -2.22872
H         27.13164        26.77532        -1.26907
H         25.89914        28.97086        -1.37776
H         25.87854        31.42182        -1.21731
H         25.77065        33.24680        -0.27470
H         25.72547        35.65756        -0.00771
H         25.80230        37.57758         0.21080
H         25.89929        39.90763         0.91704
H         26.02621        41.64889         1.67277
H         26.11187        44.04896         2.20418
H         27.31421        46.21260         2.18497
H         29.16200        25.52624        -0.70868
H         29.29416        47.53358         1.64567
H         32.85138        23.36815         0.12515
H         30.76144        24.56372        -0.03189
H         32.84810        49.79370         1.08495
H         30.91665        48.43509         1.56342
H         34.55635        22.41884         0.23581
H         34.62228        50.58724         1.61872
H         36.63060        21.24506        -0.16533
H         36.79697        51.67661         1.79270
H         40.44843        19.16552        -0.04254
H         38.36499        20.37302        -0.60325
H         40.39588        54.03878         1.36844
H         38.26414        52.82588         1.26918
H         42.80903        19.16300         0.65953
H         42.87098        54.07970         1.10582
H         44.79326        20.33502         1.46834
H         44.97308        52.93057         0.55346
H         48.43223        22.50974         0.00472
H         46.38364        21.30997         0.55787
H         48.67087        50.82296        -0.34348
H         46.58505        52.05297        -0.07664
H         50.10115        23.45909        -0.18699
H         50.28799        49.80837        -0.89605
H         52.16669        24.66886        -0.55477
H         52.38268        48.53983        -0.83891
H         55.87662        26.86715        -1.10202
H         53.80152        25.61422        -0.71635
H         56.10186        46.12722        -0.67639
H         54.00572        47.34604        -1.12231
H         57.08641        28.99928        -1.28354
H         57.11994        31.45154        -1.20613
H         57.15116        33.33055        -1.04780
H         57.18134        35.74886        -0.90415
H         57.25665        37.55305        -0.13412
H         57.28212        39.93426         0.36405
H         57.27353        41.87990         0.98978
H         57.29888        44.23511         0.70146
