         671
 CSIRO Nanostructure Databank - Neutral Graphene Oxide Data Set
C          5.86756        31.90635        -1.03754
C          5.84054        33.25046        -1.25780
C          8.33313        27.63305        -0.54385
C          8.30901        28.96659        -0.92099
C          7.11655        29.74187        -0.87799
C          8.23483        31.78212        -1.65015
C          7.08444        31.12261        -1.19522
C          8.18375        33.17330        -2.10497
C          7.00265        33.98091        -1.72110
C          8.23508        36.11053        -2.09718
C          7.04913        35.35167        -1.74695
C          8.28230        37.45165        -1.81721
C         10.74031        23.22788        -0.80394
C         10.79791        24.73330        -0.64032
C          9.62536        25.42248        -0.51690
C         10.91726        27.59775        -0.65900
C          9.59527        26.88371        -0.39252
C         10.88059        29.00851        -1.12312
C          9.55468        29.60855        -1.42571
C         10.75266        31.86678        -1.76422
C          9.49677        31.05187        -1.83264
C         10.76705        33.23677        -2.28560
C          9.46049        33.88618        -2.52469
C         10.75256        36.11179        -2.68814
C          9.42933        35.38906        -2.62297
C         10.77945        37.58961        -2.42782
C          9.47995        38.28578        -2.00941
C         10.85390        40.20246        -1.17879
C          9.62109        39.54981        -1.29506
C         10.90298        41.49041        -0.58676
C         13.37802        19.36600         0.89489
C         13.36163        20.59568         0.22666
C         12.10751        21.27214        -0.06370
C         13.29016        23.27063        -0.83237
C         12.06083        22.54376        -0.56251
C         13.29751        24.63900        -0.96453
C         12.07083        25.41960        -0.82721
C         13.28433        27.52736        -1.57908
C         12.10491        26.79411        -0.97061
C         13.35417        28.98224        -1.05895
C         12.04411        29.68112        -1.32641
C         13.29713        31.82979        -1.96037
C         12.06490        31.14882        -1.54594
C         13.25455        33.20838        -2.21589
C         11.98755        33.93071        -2.32607
C         13.22897        36.06574        -2.47275
C         12.01661        35.35436        -2.50259
C         13.24158        37.49416        -2.31956
C         12.06931        38.21703        -2.08459
C         13.34323        40.17043        -1.26088
C         12.10113        39.55265        -1.56814
C         13.37443        41.43373        -0.59238
C         12.12972        42.11974        -0.26743
C         13.42607        43.88239         0.98422
C         12.15638        43.32375         0.43356
C         13.38973        45.37565         1.00292
C         15.80097        15.67559         3.24244
C         15.82895        16.91760         2.37120
C         14.62425        17.49854         1.95700
C         15.82934        19.34436         0.85190
C         14.59948        18.72766         1.23406
C         15.79682        20.53347         0.06595
C         14.58652        21.19271        -0.19172
C         15.80778        23.23545        -1.08960
C         14.52630        22.43083        -1.07732
C         15.83049        24.60116        -1.17391
C         14.59706        25.40513        -0.84431
C         15.77818        27.47183        -1.60259
C         14.60124        26.80739        -1.41654
C         15.85991        28.98409        -1.46134
C         14.55074        29.70551        -1.63480
C         15.76825        31.73280        -2.27718
C         14.53247        31.05424        -1.99153
C         15.75565        33.19237        -2.35220
C         14.47982        33.94446        -2.39831
C         15.72991        36.08649        -2.58139
C         14.48100        35.33559        -2.49987
C         15.75807        37.44169        -2.41502
C         14.51090        38.27930        -2.51609
C         15.80719        40.15680        -1.49466
C         14.58277        39.54224        -1.68242
C         15.89409        41.33368        -0.55191
C         14.60205        42.07228        -0.30934
C         15.86748        44.09530         0.37205
C         14.65523        43.34134         0.29853
C         15.86305        45.45615         0.80008
C         14.57726        46.12509         1.03318
C         15.80991        48.21756         1.70987
C         14.56062        47.49721         1.30772
C         15.71545        49.72763         1.48220
C         18.36110        11.47394         3.93716
C         18.34391        12.84274         3.78084
C         17.12273        13.57109         3.58522
C         18.36625        15.63643         3.15765
C         17.11844        14.92593         3.33094
C         18.30475        17.03789         2.67874
C         17.04913        17.55233         2.08125
C         18.29241        19.40607         1.04134
C         17.07666        18.75820         1.30230
C         18.33734        20.54718         0.12019
C         17.06454        21.08305        -0.47026
C         18.34277        23.23062        -1.15819
C         17.06451        22.45440        -1.10644
C         18.30136        24.69057        -1.33937
C         17.07054        25.35218        -1.36232
C         18.24521        27.41969        -1.95652
C         17.05479        26.76003        -1.60964
C         18.18666        28.78838        -2.59346
C         17.00954        29.62665        -2.17423
C         18.25186        31.65434        -2.78792
C         17.00033        30.99824        -2.40546
C         18.25916        33.11330        -3.19807
C         17.02965        33.89619        -2.75381
C         18.26445        35.98073        -2.53171
C         16.97044        35.39539        -3.13959
C         18.27460        37.41860        -2.19524
C         17.04649        38.20981        -2.60613
C         18.26924        40.23515        -1.79356
C         17.05581        39.58089        -1.95826
C         18.28720        41.67530        -1.42748
C         17.01711        42.27862        -0.89041
C         18.30051        44.22465        -0.04780
C         17.08789        43.54179        -0.13911
C         18.31399        45.56066         0.48348
C         17.06714        46.20037         0.82443
C         18.24786        48.34789         1.09597
C         17.06884        47.59929         1.13722
C         18.22518        49.77710         1.36099
C         17.04655        50.41763         1.69620
C         18.17874        52.51178         2.31152
C         17.04387        51.77281         2.18784
C         18.12135        53.97125         2.68603
C         20.78541         7.20415         4.34567
C         20.78133         8.57339         4.23990
C         19.57730         9.35008         4.21074
C         20.85264        11.44159         3.89528
C         19.58491        10.72740         4.06425
C         20.86136        12.83984         3.70832
C         19.61417        13.63853         3.98465
C         20.85785        15.62238         3.00362
C         19.58849        14.99663         3.31823
C         20.88261        17.00280         2.53379
C         19.59408        17.71501         2.36103
C         20.81065        19.66035         1.35676
C         19.61725        18.73014         1.25005
C         20.81613        20.84861         0.71919
C         19.54032        21.42718         0.23381
C         20.83173        23.41292        -0.73127
C         19.54485        22.75849        -0.41409
C         20.79086        24.67634        -1.41216
C         19.52970        25.36916        -1.54220
C         20.73326        27.40387        -2.23004
C         19.49493        26.73707        -1.92268
C         20.69689        28.83848        -2.47179
C         19.49543        29.53912        -2.56192
C         20.72497        31.66653        -3.27139
C         19.45038        30.96112        -2.82501
C         20.79967        33.13925        -2.90368
C         19.50659        33.82659        -2.55818
C         20.79979        36.01038        -2.54953
C         19.53728        35.30538        -2.99595
C         20.75908        37.42886        -2.32730
C         19.57579        38.12170        -2.15511
C         20.74310        40.22139        -1.66416
C         19.55919        39.56396        -1.92288
C         20.84012        41.72023        -1.52430
C         19.54210        42.35630        -1.08591
C         20.80438        44.26193        -0.15640
C         19.54201        43.58922        -0.46005
C         20.78614        45.57974         0.40247
C         19.52439        46.24660         0.65150
C         20.70173        48.26793         1.37726
C         19.51934        47.64771         1.00185
C         20.76665        49.73123         1.53076
C         19.50143        50.53575         1.38871
C         20.70177        52.51395         2.51569
C         19.48561        52.03192         1.73307
C         20.65876        53.80836         3.08553
C         19.41273        54.51831         3.25768
C         20.57889        56.33771         4.43213
C         19.38533        55.72344         3.91839
C         20.55212        57.56520         5.09966
C         23.25427         4.38142         4.68319
C         22.05463         5.09255         4.70628
C         23.22950         7.07595         3.91394
C         22.02724         6.45049         4.33438
C         23.16925         8.51391         3.44882
C         22.12086         9.27857         4.25929
C         23.28468        11.38417         3.58498
C         22.06278        10.72503         3.84173
C         23.29582        12.78031         3.36902
C         22.07043        13.50718         3.41901
C         23.32486        15.53728         2.57797
C         22.05153        14.91654         3.10375
C         23.32479        17.05036         2.66754
C         22.04080        17.69484         2.30524
C         23.30949        19.78777         1.57754
C         22.02151        19.20616         2.14734
C         23.30702        20.95342         0.86446
C         22.02367        21.76278         0.78208
C         23.24879        23.38907        -0.74523
C         22.01771        22.83433        -0.29286
C         23.20852        24.50886        -1.63233
C         21.99362        25.28645        -1.83664
C         23.16334        27.44869        -2.49790
C         21.95140        26.67910        -2.25414
C         23.17948        28.82381        -2.47375
C         21.95093        29.57495        -2.55898
C         23.25030        31.64480        -2.97314
C         21.96891        30.91969        -2.87444
C         23.26390        33.14676        -2.98953
C         21.96526        33.85564        -2.87514
C         23.25782        36.00834        -2.47420
C         21.99718        35.30531        -2.62296
C         23.28987        37.37773        -2.27763
C         22.04221        38.22099        -2.42089
C         23.27907        40.23609        -1.53176
C         22.01287        39.40891        -1.46048
C         23.30181        41.53065        -1.10069
C         21.99856        42.11459        -0.60026
C         23.25765        44.27557        -0.14525
C         22.02592        43.60066        -0.34887
C         23.23147        45.59487         0.41324
C         21.99206        46.20802         0.75358
C         23.22044        48.19388         1.80161
C         21.90659        47.41304         1.68198
C         23.21371        49.65946         2.05770
C         21.88622        50.28790         2.38701
C         23.13500        52.42330         2.83992
C         21.91775        51.79585         2.49180
C         23.11771        53.75217         3.36668
C         21.86446        54.40239         3.57836
C         23.03576        56.24930         4.70802
C         21.83156        55.66407         4.23267
C         22.99620        57.49748         5.38918
C         21.74597        58.16204         5.58741
C         22.91676        59.97169         6.73389
C         21.73373        59.40874         6.26700
C         24.43303         5.00022         4.26226
C         25.69130         6.97179         3.31828
C         24.42448         6.34784         3.86145
C         25.72653         8.48237         3.43452
C         24.50517         9.22829         3.51264
C         25.77660        11.33529         3.46677
C         24.52957        10.62329         3.54236
C         25.79742        12.73051         3.33919
C         24.56384        13.48227         3.23288
C         25.86674        15.56848         3.01289
C         24.57989        14.85811         3.07029
C         25.92039        17.04205         2.67115
C         24.60893        17.80632         2.57635
C         25.67650        19.33998         0.90264
C         24.65559        19.23666         2.04365
C         25.71571        20.75715         0.34768
C         24.54431        21.50033         0.29689
C         25.70253        23.34903        -0.88169
C         24.50112        22.76224        -0.43787
C         25.68981        24.45755        -1.77390
C         24.42627        24.82005        -2.27400
C         25.66568        27.34187        -2.53647
C         24.44399        26.84458        -2.83555
C         25.66932        28.70793        -1.88482
C         24.53156        29.50334        -2.61452
C         25.30698        31.73827        -1.67221
C         24.39303        30.97288        -2.31822
C         25.53640        33.13481        -1.96977
C         24.49674        33.83208        -2.53102
C         25.76071        35.91163        -2.03431
C         24.57854        35.30853        -2.75558
C         25.69484        37.33948        -1.81684
C         24.52986        38.06424        -2.01337
C         25.77407        40.22538        -1.47199
C         24.53299        39.58910        -2.06216
C         25.76239        41.60989        -1.06474
C         24.55135        42.27487        -0.93280
C         25.71309        44.39482        -0.34841
C         24.51984        43.65840        -0.45763
C         25.67417        45.73589         0.14068
C         24.46618        46.27708         0.59744
C         25.72040        48.41122         1.18419
C         24.48707        47.57406         1.30211
C         25.68776        49.77594         1.77741
C         24.38612        50.35391         2.21573
C         25.61283        52.34129         3.01079
C         24.39770        51.72634         2.68707
C         25.65296        53.81916         3.32594
C         24.32666        54.38039         3.77936
C         25.50797        56.17912         5.01053
C         24.28850        55.59390         4.47411
C         25.44358        57.39710         5.69072
C         24.20880        58.08688         5.87624
C         24.14470        59.32556         6.54773
C         26.93714         9.13648         3.41589
C         28.23921        11.21569         3.40005
C         27.02141        10.57674         3.43546
C         28.35909        12.70824         3.47148
C         27.05771        13.42447         3.17352
C         28.40881        15.51487         2.80241
C         27.09356        14.76357         2.88739
C         28.29558        16.79022         1.96891
C         27.12254        17.51321         1.94767
C         28.08413        19.03931         0.15591
C         27.09714        18.90111         1.32638
C         28.09818        20.48025        -0.30698
C         26.96299        21.25466        -0.19574
C         28.21548        23.28460        -1.19232
C         26.98864        22.69483        -0.57225
C         28.11602        24.52105        -2.00518
C         26.91398        25.14179        -2.21615
C         28.18724        27.30438        -2.69237
C         26.88914        26.52920        -2.91679
C         28.22214        28.67153        -2.45371
C         27.03020        29.38361        -1.99531
C         28.38754        31.51445        -1.52122
C         27.20529        30.61244        -1.45157
C         28.10233        32.98013        -1.92499
C         26.90376        33.70074        -1.87279
C         28.21034        35.83843        -1.42816
C         26.91237        35.15943        -1.83586
C         28.14931        37.29813        -1.87581
C         26.93044        38.00819        -1.28274
C         28.24286        40.15273        -1.24032
C         26.93168        39.50620        -1.44127
C         28.34723        41.56235        -0.74119
C         27.00086        42.25169        -0.42058
C         28.27508        44.45376        -0.29196
C         27.02376        43.73034        -0.78044
C         28.12342        45.79440        -0.11904
C         26.92843        46.47028         0.34741
C         28.13836        48.12986         1.94217
C         27.00386        47.67607         1.01848
C         28.10299        49.57977         2.39436
C         26.92921        50.33608         2.36226
C         28.02018        52.16024         3.61186
C         26.85244        51.62466         2.96375
C         27.95438        53.43324         4.25602
C         26.80359        54.22549         4.22028
C         26.72234        55.43958         4.91768
C         29.49020        13.26596         2.64876
C         30.70234        15.21382         1.80990
C         29.54722        14.61276         2.36826
C         30.71113        16.56064         1.37537
C         29.48353        17.30498         1.31656
C         30.61074        19.03387        -0.00583
C         29.44629        18.50009         0.54370
C         30.57641        20.11830        -1.06166
C         29.29226        20.95291        -1.06008
C         30.66225        23.03053        -1.81258
C         29.36025        22.37551        -1.51046
C         30.65750        24.35255        -2.18816
C         29.39627        25.06546        -2.50364
C         30.72873        27.25220        -2.68657
C         29.44449        26.54193        -2.84588
C         30.71457        28.74051        -2.98894
C         29.44923        29.44839        -2.53098
C         30.69446        31.60434        -2.43776
C         29.50301        30.82427        -2.27728
C         30.67966        32.99684        -2.25970
C         29.37386        33.71096        -2.22915
C         30.72440        35.90658        -1.88589
C         29.42472        35.20049        -2.07779
C         30.72935        37.30485        -1.66261
C         29.46086        38.03268        -1.70391
C         31.10541        40.39429        -1.07566
C         29.36609        39.38758        -1.83906
C         30.87062        41.57408        -0.42714
C         29.65528        42.37867        -0.79007
C         30.92045        44.38531         0.27217
C         29.64892        43.84249        -0.44945
C         31.06710        45.83291         0.85231
C         29.94351        46.76618         0.74303
C         30.56846        48.02679         2.68699
C         29.56035        47.65076         1.70252
C         30.37843        49.24435         3.37112
C         29.23295        50.06380         3.14560
C         29.17152        51.36045         3.70981
C         31.89884        17.15249         0.88112
C         33.08334        19.04135        -0.17062
C         31.87243        18.39840         0.23917
C         33.09849        20.30431        -0.75729
C         31.84795        20.96664        -1.11791
C         33.19528        22.88128        -2.06544
C         31.87757        22.25048        -1.61469
C         33.12466        24.40483        -1.83935
C         31.93871        25.05388        -2.58828
C         33.16163        27.29826        -2.31817
C         31.90826        26.57796        -2.45513
C         33.20842        28.68841        -2.42770
C         31.90453        29.44560        -2.33956
C         33.18171        31.58288        -2.18558
C         31.98495        30.90094        -2.79373
C         33.12874        32.97830        -1.98311
C         31.90476        33.73253        -2.10847
C         33.17229        35.85977        -1.62056
C         31.93735        35.16584        -1.88386
C         33.14595        37.22920        -1.16190
C         31.92949        37.93892        -1.20472
C         32.90010        39.72776         0.49697
C         31.88385        39.28327        -0.53456
C         32.94486        41.16955         0.83792
C         31.86562        42.03515         0.51682
C         32.98650        43.87793         1.66419
C         31.89129        43.41397         0.86588
C         32.98373        45.17972         2.25811
C         31.96436        46.08950         2.00100
C         31.74035        47.24609         2.79753
C         34.33108        21.02198        -0.84197
C         35.58049        23.08788        -1.21010
C         34.39965        22.31986        -1.33525
C         35.65972        24.44688        -1.56698
C         34.45087        25.11722        -2.18913
C         35.68199        27.30331        -2.03912
C         34.38105        26.59521        -1.77317
C         35.67175        28.68312        -2.24353
C         34.43636        29.41024        -2.33088
C         35.59938        31.51261        -1.77151
C         34.41884        30.85044        -2.14491
C         35.53236        32.89578        -1.30038
C         34.32951        33.67106        -1.64516
C         35.69503        35.65258        -1.58831
C         34.37957        35.06480        -1.61427
C         35.58081        37.62300        -0.84965
C         34.29176        37.88964        -0.49301
C         35.38093        39.60908         1.02026
C         34.10986        38.81827         0.71403
C         35.28707        40.87830         1.58194
C         34.09540        41.68123         1.50249
C         34.06913        43.00987         1.95320
C         36.83956        25.19076        -1.47303
C         38.13220        27.28684        -1.75012
C         36.90117        26.58646        -1.79126
C         38.20100        28.68009        -1.95769
C         36.95952        29.38274        -2.30916
C         38.12966        31.52252        -1.47016
C         36.91807        30.92518        -1.99384
C         38.12948        32.87393        -0.78276
C         36.79584        33.60139        -0.86895
C         38.05318        35.81654        -0.78932
C         36.83463        35.05674        -1.11592
C         37.95282        37.14009        -0.21869
C         36.77787        37.90658        -0.06717
C         36.64913        39.00540         0.81601
C         39.38277        29.44024        -1.79627
C         40.57731        31.61184        -1.33340
C         39.35056        30.84099        -1.57708
C         40.56199        32.95897        -1.25817
C         39.26164        33.72738        -1.40042
C         39.24929        35.11748        -0.81792
O         17.00332        35.67448        -4.50418
O         17.35208        42.44921        -2.29217
O         30.45513        40.14396        -2.28451
O         29.86586        43.36556        -1.83025
O         31.64264        39.11110         0.92615
O         11.37242        31.82744        -0.41525
O         29.39541        25.51149        -3.93566
O         17.90061        20.14702        -1.23672
O         18.91613        18.05493         3.59718
O         37.07403        30.36750        -3.34962
O         16.75140        33.74806        -1.35092
O         28.52522        40.44759         0.20459
O         31.65774        45.44150        -0.41684
O         35.79683        36.96580        -2.07119
O         23.88610        17.70792         3.85662
O         10.00931        38.35090        -3.39013
O         24.35694        25.57980        -3.44059
O         23.45861        32.36796        -4.25083
O         28.95217        21.33153        -2.46784
O         19.24366        22.65534         1.03716
O          8.59925        33.26764        -3.53332
O         26.14853        31.16509        -0.70470
O         17.88165        22.48857        -2.32812
O         29.21075        34.63723        -3.40283
O          9.46816        29.99758        -2.85413
O         24.11465        47.46850         2.73698
O         20.42531        50.35919         0.24581
O         35.87895        33.11886         0.17021
O         10.42873        27.41361         0.71477
O         27.94552        23.48953         0.23232
O         26.13433        16.62868         4.06607
O         25.67178        49.58398         0.29686
O         18.13422        36.37545        -1.14419
O          9.98729        35.81192        -3.90335
O         29.19911        46.63059        -0.41692
O         31.61789        29.46189        -0.91128
H         32.13779        30.18585        -0.50116
O         28.44121        35.68929        -0.01477
H         27.86873        36.34045         0.45873
O         28.89175        31.66459        -0.14946
H         28.12685        31.92077         0.41051
O         27.60317        19.80443         2.33093
H         26.86777        20.01272         2.95967
O         21.86611        19.72963         3.50031
H         22.45141        19.19292         4.08345
O         33.85498        38.01478         1.88865
H         32.87833        37.89495         1.93889
O         19.59679        35.40960        -4.43206
H         18.64762        35.40327        -4.77607
O         27.08574        43.77655        -2.22817
H         27.39229        44.66369        -2.50955
O         21.94800        38.86286        -0.11386
H         21.78761        39.63133         0.48986
O         19.66666        13.92826         5.43287
H         18.92408        14.53686         5.63474
O         26.81574        42.16904         1.00954
H         27.21863        41.31378         1.29340
O         17.17542        38.37355        -4.05926
H         17.11802        37.43909        -4.44350
O         10.34575        22.92843        -2.15797
H          9.55529        23.46551        -2.37201
O         14.45400        38.71366        -3.91694
H         15.38922        38.79744        -4.23965
O         27.65609        18.21400        -0.97068
H         28.31144        18.34352        -1.69217
O         34.25386        26.67285        -0.29818
H         34.01573        27.59845        -0.07548
O         26.94297        37.82410         0.17134
H         26.13656        38.24451         0.53762
O         19.58071        52.75627         0.46545
H         20.14937        52.20669        -0.12438
O         26.81066        26.29054        -4.34443
H         27.63434        25.81257        -4.60251
O         19.83643        17.93071         0.03461
H         19.55927        18.46823        -0.73979
O         25.32189        28.54416        -0.49567
H         25.46031        29.41245        -0.05344
O         26.84923         6.39003         3.92297
H         26.82232         6.58471         4.88208
O         22.59131         9.26868         5.63787
H         21.95398         9.78040         6.17856
O         17.92956        28.51136        -4.02881
H         18.10385        29.33973        -4.52672
O         27.91168        37.28930        -3.30856
H         28.46365        36.58712        -3.72025
O         19.41743        33.74647        -1.12629
H         18.61781        34.23054        -0.81666
O         14.38667        21.92990        -2.44710
H         13.52930        21.45624        -2.50123
O         14.70431        50.26004         2.33283
H         14.80711        49.80984         3.20039
O         20.70238        31.65920        -4.75276
H         21.57808        32.01990        -5.03906
O         27.75819        47.38362         3.17112
H         28.37253        47.66870         3.88280
O         28.69741        13.05626         4.86096
H         28.79193        14.04243         4.88666
O         14.74437        14.80211         2.83455
H         14.89788        14.54846         1.90164
O         21.93030        22.49833         2.03653
H         20.99664        22.80629         2.11298
O         22.73165         8.52578         2.06103
H         23.33758         7.95528         1.54447
O         24.83333        35.51881        -4.18398
H         25.18088        36.43010        -4.29236
O         34.69279        25.08089        -3.60738
H         33.84455        25.22928        -4.08692
O         13.01921        27.64482        -3.00571
H         13.04835        26.74967        -3.40391
O         24.90481        29.47535        -4.02024
H         24.30244        30.07004        -4.51668
O         25.93390        54.47262         2.03401
H         25.22272        54.21156         1.41094
O         32.06098        24.82051        -4.03346
H         31.19106        25.09650        -4.42436
O         30.80969        28.82200        -4.42853
H         29.98955        28.44617        -4.81058
O         21.70949        41.49846         0.70082
H         22.34532        41.86246         1.35303
O         14.71326        25.66131         0.60832
H         14.61996        24.80411         1.07579
O         38.93347        33.82770        -2.81478
H         39.62507        34.36523        -3.25339
O         15.91487        48.05946         3.17512
H         15.94298        47.09809         3.36765
O         21.16196        42.25703        -2.83746
H         20.42509        42.04003        -3.44696
O         13.52412        43.41791         2.40838
H         14.45646        43.53936         2.68940
O         33.37345        22.53758        -3.45247
H         32.82469        23.15304        -3.99482
O         24.59668        39.91800        -3.48706
H         23.71260        39.68452        -3.86964
O         17.01963        54.24715         3.55383
H         17.17093        53.78610         4.40381
O         18.32117        33.14866        -4.62912
H         19.16757        32.72355        -4.91807
O         38.44244        32.68852         0.61333
H         37.58315        32.58087         1.08174
O         16.20210        29.13673        -0.02642
H         15.39515        28.85539         0.47732
O         21.64190        46.83835         3.00077
H         22.52432        46.62490         3.38659
O         28.73590        15.90515         4.17590
H         27.93831        16.38780         4.51449
O         32.83280        24.49534        -0.43123
H         33.16070        25.36065        -0.08121
O         25.16777        18.44328        -0.10552
H         25.87116        18.31789        -0.78943
O         21.52432        49.82752         3.73456
H         22.29856        49.96440         4.32015
O         25.08355        20.07780         3.14265
H         24.51857        19.86108         3.91672
O         23.31917        15.29439         1.12326
H         23.17610        14.33456         0.97959
O         13.53233        28.89557         0.38664
H         13.24153        29.74427         0.78321
O         16.27494        40.77198         0.75359
H         15.54954        40.18301         1.05131
O         30.57256        19.36133        -2.31386
H         30.26215        19.98830        -3.00998
O         22.08348        38.78088        -3.77526
H         21.92275        38.04836        -4.40875
O         32.18239        30.94607        -4.22896
H         32.20396        31.88661        -4.50181
H          4.96094        31.38960        -0.69053
H          4.91621        33.81859        -1.07537
H          7.39474        27.13290        -0.25854
H          6.19152        29.25777        -0.53112
H          6.16516        35.92264        -1.42300
H          7.40384        37.92794        -1.35394
H          9.96293        22.80713        -0.10070
H          8.66668        24.87921        -0.52911
H          8.72949        40.00348        -0.83583
H          9.96002        41.98696        -0.31361
H         12.42698        18.89581         1.18610
H         11.17124        20.75064         0.18686
H         11.20885        43.81893         0.69464
H         12.42815        45.88431         1.16761
H         15.54234        16.00876         4.28843
H         13.67481        17.01442         2.22824
H         13.59787        48.00633         1.46786
H         15.40328        49.92607         0.41960
H         17.41184        10.91508         3.92173
H         16.16549        13.02772         3.61112
H         16.07813        52.19671         2.50334
H         17.91944        54.53501         1.73110
H         19.83764         6.65235         4.44560
H         18.61299         8.82114         4.27093
H         18.42225        56.23743         4.05630
H         19.59271        58.08207         5.25080
H         23.27062         3.32544         4.98722
H         21.12617         4.59963         5.02847
H         22.88900        60.93748         7.25792
H         20.77671        59.92757         6.42105
H         25.37807         4.43983         4.23340
H         25.75170         6.71597         2.22043
H         26.36527        57.83625         6.10170
H         25.06971        59.78421         6.92563
H         27.86748         8.55057         3.37520
H         29.16541        10.62078         3.38833
H         28.82426        53.77393         4.83876
H         27.60715        55.80570         5.46149
H         30.35011        12.62078         2.40929
H         31.60743        14.60353         1.66912
H         31.17439        49.62261         4.02935
H         30.04281        51.74132         4.26340
H         32.85211        16.61351         0.98258
H         34.03949        18.56139         0.08781
H         33.72992        45.40166         3.03523
H         32.48676        47.50867         3.56181
H         35.23082        20.56055        -0.40409
H         36.46475        22.61097        -0.75514
H         36.20809        41.36838         1.93555
H         34.92728        43.40613         2.51533
H         37.76407        24.69159        -1.14126
H         39.05359        26.73407        -1.51195
H         38.85494        37.50777         0.29844
H         37.54103        39.44496         1.28886
H         40.34230        28.91254        -1.68594
H         41.52835        31.06116        -1.26854
H         41.50183        33.51886        -1.13059
H         40.18117        35.58141        -0.45951
