         648
 CSIRO Nanostructure Databank - Neutral Graphene Oxide Data Set
C          5.84960        31.82036        -0.19929
C          5.81939        33.16980        -0.38223
C          8.50842        27.59409         0.30763
C          8.54398        29.10083         0.26659
C          7.18524        29.75713         0.19216
C          8.29675        31.82286        -0.51174
C          7.10025        31.07949        -0.18956
C          8.28041        33.20180        -0.56984
C          7.03936        33.93650        -0.51997
C          8.34473        36.00576        -0.59248
C          7.08552        35.31462        -0.58319
C          8.38237        37.38923        -0.53643
C         10.85906        23.28305         0.29397
C         10.82034        24.67458         0.05990
C          9.65496        25.42550         0.22137
C         10.67943        27.43331        -0.88979
C          9.58067        26.82878        -0.07342
C         10.63399        28.88638        -1.26266
C          9.40930        29.69298        -0.86898
C         10.64454        31.83808        -1.57860
C          9.64479        31.18222        -0.61770
C         10.76959        32.97751        -0.55283
C          9.55252        33.86976        -0.59552
C         10.85951        35.94332        -0.51531
C          9.58817        35.24745        -0.57174
C         10.86598        37.34568        -0.39792
C          9.61811        38.09297        -0.34007
C         10.85270        40.09774         0.49649
C          9.61559        39.43327        -0.02069
C         10.86700        41.58755         0.28049
C         13.20844        18.98400         0.65506
C         13.21578        20.35359         0.29636
C         12.04641        21.14404         0.43780
C         13.26445        23.15372        -0.32890
C         12.03903        22.51678         0.14204
C         13.23969        24.49922        -0.68463
C         12.07913        25.34610        -0.35164
C         13.08473        27.31638        -1.76595
C         12.01445        26.75436        -0.86608
C         13.06979        28.81770        -1.98820
C         11.88773        29.62697        -1.57063
C         13.20963        31.70473        -1.56807
C         11.92625        30.99769        -1.58133
C         13.27862        33.04557        -1.11003
C         12.11921        33.68903        -0.33765
C         13.30013        35.90903        -0.56306
C         12.08089        35.20948        -0.53396
C         13.33951        37.32413        -0.45432
C         12.11067        38.05453        -0.30888
C         13.37142        40.14383         0.17288
C         12.10781        39.42624        -0.00527
C         13.33261        41.61666         0.45948
C         12.02157        42.33136         0.33837
C         13.13814        44.55595         0.21348
C         11.98610        43.76679         0.31262
C         13.11795        45.96848         0.17679
C         15.75106        14.82122         1.54488
C         15.69828        16.20009         1.29719
C         14.48591        16.91622         1.20707
C         15.63666        18.91772         0.36464
C         14.43424        18.27304         0.78283
C         15.57650        20.10430        -0.47565
C         14.42397        20.96947        -0.19297
C         15.73354        23.10131        -0.46463
C         14.49566        22.38821        -0.35450
C         15.73298        24.37657        -1.19427
C         14.37186        25.08906        -1.38893
C         15.67626        27.27598        -1.97594
C         14.37543        26.53426        -1.84238
C         15.66390        28.77195        -2.14800
C         14.36131        29.55660        -2.22566
C         15.64020        31.68690        -1.94421
C         14.40089        31.01174        -1.90735
C         15.68140        33.05599        -1.57868
C         14.51489        33.72049        -1.12007
C         15.68791        35.94451        -1.25921
C         14.60771        35.13161        -0.52702
C         15.76134        37.38659        -0.79416
C         14.60335        38.05872        -0.48645
C         15.76182        40.28405        -0.49951
C         14.63337        39.51561        -0.28479
C         15.80135        41.72900        -0.29554
C         14.62142        42.42652         0.37766
C         15.64297        44.62979        -0.29343
C         14.40122        43.83693        -0.12392
C         15.57844        45.97702         0.34386
C         14.31696        46.75132         0.20786
C         15.59992        48.86321         0.67831
C         14.36990        48.13060         0.27888
C         15.71982        50.33538         0.30684
C         18.25480        10.72469         2.62362
C         18.25705        12.01945         2.10610
C         17.03430        12.75749         1.97301
C         18.21688        14.82603         1.33485
C         16.99141        14.12041         1.62832
C         18.24188        16.20128         1.13302
C         16.97462        16.95672         1.27291
C         18.20496        19.13983         0.58567
C         16.92103        18.42516         0.87123
C         18.27977        20.49506         0.65408
C         17.11250        21.41970         0.89978
C         18.17040        23.17454        -0.54871
C         17.00129        22.57546        -0.07127
C         18.17186        24.53543        -1.03246
C         16.96464        25.18081        -1.26740
C         18.20532        27.37643        -1.67285
C         16.90668        26.69308        -1.29107
C         18.16737        28.77099        -1.93628
C         16.94412        29.48661        -1.97789
C         18.26581        31.68178        -2.26591
C         16.88386        30.91424        -2.27802
C         18.22587        33.16475        -2.09899
C         16.99609        33.75736        -1.48222
C         18.29244        35.96710        -1.45342
C         17.02849        35.22193        -1.21893
C         18.28044        37.39081        -0.96535
C         16.97164        38.16457        -1.26266
C         18.21064        40.42208        -1.38931
C         17.10416        39.60253        -0.67775
C         18.21429        41.90172        -1.07460
C         16.94862        42.45574        -0.50030
C         18.16422        44.55550         0.23587
C         16.99258        43.96996        -0.52289
C         18.12583        45.88770         0.62463
C         16.84149        46.60931         0.81209
C         18.17916        48.76865         0.98417
C         16.85668        48.09534         0.99709
C         18.23361        50.17843         0.93044
C         17.04781        50.97210         0.67924
C         18.37177        53.04300         0.89082
C         17.13140        52.34436         0.67469
C         18.42885        54.44956         0.90370
C         20.84448         6.66896         4.09370
C         20.79172         7.98014         3.53455
C         19.58040         8.65745         3.40388
C         20.78140        10.67163         2.38812
C         19.47221         9.92224         2.66898
C         20.73029        12.10668         2.05259
C         19.51026        12.68782         1.78823
C         20.70895        14.85257         1.37092
C         19.46582        14.01857         1.06599
C         20.66632        16.18753         0.65733
C         19.44139        16.86985         0.70228
C         20.71003        18.96133         0.35283
C         19.37235        18.28067         0.14063
C         20.77990        20.45149         0.33168
C         19.54325        21.31106         0.49572
C         20.68870        23.13986        -0.72621
C         19.41597        22.33443        -0.65316
C         20.66017        24.56107        -0.96828
C         19.43374        25.25745        -1.16077
C         20.68751        27.35231        -1.48420
C         19.43667        26.65775        -1.47622
C         20.74671        28.77751        -1.84737
C         19.44985        29.51467        -2.11212
C         20.66161        31.74202        -1.42604
C         19.46877        30.97518        -1.95497
C         20.83710        33.13980        -2.10763
C         19.51828        33.91826        -2.06928
C         20.76670        36.04785        -1.49994
C         19.49435        35.33259        -1.61647
C         20.75778        37.42061        -1.44176
C         19.46554        38.13100        -1.53323
C         20.79126        40.23291        -1.81768
C         19.45346        39.60323        -1.72619
C         20.71987        42.33728        -1.18994
C         19.45147        42.70373        -0.74624
C         20.63485        44.45265         0.58650
C         19.41533        43.86741         0.09037
C         20.51600        45.79042         1.12870
C         19.32882        46.55308         0.99205
C         20.60294        48.65237         1.38292
C         19.35299        47.98837         1.15768
C         20.64684        50.06505         1.37475
C         19.49509        50.83838         1.10920
C         20.79590        52.96630         1.24155
C         19.56357        52.27896         1.07702
C         20.84019        54.36282         1.25455
C         19.64850        55.13980         1.09683
C         20.87895        57.27568         1.44297
C         19.69363        56.57012         1.19108
C         20.94300        58.66413         1.67421
C         23.38337         4.04061         4.96533
C         22.13398         4.66149         4.73690
C         23.26070         6.53726         3.56640
C         22.04464         5.94428         4.16629
C         23.26252         7.99358         3.30879
C         22.06464         8.64891         3.23915
C         23.31575        10.82087         2.62615
C         22.03508        10.10817         2.96313
C         23.25751        12.05199         1.81141
C         21.98962        12.76284         1.68325
C         23.07029        14.54711         0.29728
C         21.97085        14.04229         1.18197
C         23.12925        16.05345         0.19090
C         21.87831        16.78141         0.18947
C         23.10762        18.87264        -0.29646
C         21.92331        18.19898        -0.01645
C         23.15223        20.30203        -0.45856
C         21.96416        21.06753        -0.27029
C         23.19111        23.13159        -0.72945
C         21.89016        22.44243        -0.61486
C         23.18586        24.60569        -0.86278
C         21.88471        25.29237        -0.99384
C         23.17690        27.41475        -0.90168
C         21.88986        26.67614        -1.19909
C         23.17187        28.86309        -1.31445
C         21.96746        29.56364        -1.51226
C         23.17751        31.68332        -1.31479
C         21.96356        30.97184        -1.48356
C         23.19585        33.14795        -1.20150
C         21.99624        33.87520        -1.44553
C         23.17364        35.98272        -0.94787
C         22.00666        35.29885        -1.32266
C         23.25038        37.43692        -1.09550
C         22.00031        38.19431        -1.43866
C         23.26032        40.47045        -1.39441
C         21.95151        39.67982        -1.39318
C         23.18587        41.93927        -0.83477
C         21.94725        42.70350        -0.58902
C         23.20288        44.40737         0.59587
C         21.90921        43.80496         0.31828
C         23.38237        45.48168         1.42537
C         21.58454        46.49484         1.76908
C         23.05798        48.48721         2.15217
C         21.76412        47.86741         1.70475
C         23.08692        49.99607         2.19092
C         21.96429        50.71679         1.51676
C         23.25301        52.88213         1.93183
C         22.05728        52.20363         1.38163
C         23.28814        54.25651         1.94230
C         22.14816        55.03439         1.39212
C         23.29838        57.18744         2.15748
C         22.16249        56.53819         1.46574
C         23.37951        58.60908         2.22367
C         22.16922        59.34517         1.93835
C         23.41847        61.43167         2.09078
C         22.20559        60.75818         1.93797
C         24.57859         4.62135         4.59853
C         25.83630         6.58171         3.51449
C         24.60208         5.82416         3.77551
C         25.81669         7.91810         3.14021
C         24.57797         8.75328         3.41120
C         25.73717        10.65811         2.23738
C         24.57684        10.06460         2.66294
C         25.71370        11.98570         1.64030
C         24.43071        12.59001         1.33519
C         25.61696        14.69282         0.80099
C         24.44219        13.80408         0.42549
C         25.59964        16.13087         0.39197
C         24.31867        16.71223        -0.04297
C         25.62298        18.83131        -0.53398
C         24.32500        18.07458        -0.67507
C         25.60555        20.21803        -0.81458
C         24.36922        20.92571        -0.84363
C         25.64608        23.08445        -1.22155
C         24.33565        22.34899        -1.32757
C         25.61647        24.51561        -1.38447
C         24.43440        25.26116        -1.32056
C         25.63441        27.39533        -1.37399
C         24.44420        26.69231        -1.32849
C         25.65453        28.83759        -1.07639
C         24.37735        29.56798        -1.23114
C         25.67955        31.66090        -1.00866
C         24.38728        30.96808        -1.21724
C         25.67860        33.13082        -0.85104
C         24.38666        33.81773        -0.89744
C         25.72423        35.99550        -0.83136
C         24.41301        35.26169        -0.49806
C         25.72754        37.47173        -0.60766
C         24.41628        38.21216        -0.58021
C         25.66923        40.41080        -0.67794
C         24.31213        39.74614        -0.51326
C         25.66445        41.80102        -0.57899
C         24.40084        42.52757        -0.53086
C         25.69064        44.57032         0.32136
C         24.39948        44.02396        -0.27179
C         25.68473        45.80313         0.95285
C         24.39069        46.54910         1.08882
C         25.54851        48.49226         2.16109
C         24.38300        47.80744         1.95066
C         25.57229        49.90264         2.64050
C         24.36602        50.72753         2.37432
C         25.65497        52.81748         2.82820
C         24.40322        52.10337         2.34290
C         25.67646        54.32669         2.66264
C         24.44877        54.96865         2.44303
C         26.12473        57.36894         2.84950
C         24.27201        56.36106         2.70839
C         25.92721        58.66840         2.37750
C         24.63680        59.31032         2.35798
C         24.60929        60.72643         2.24794
C         26.98561         8.55843         2.67602
C         28.19508        10.61074         2.05844
C         27.01689         9.94051         2.32107
C         28.19952        12.10906         1.97536
C         26.91287        12.66405         1.41238
C         28.11045        14.72681         0.73472
C         26.92665        14.01408         0.93279
C         28.09530        16.10972         0.29441
C         26.87963        16.79608         0.09548
C         28.08898        18.85026        -0.57964
C         26.85693        18.15567        -0.35513
C         28.07529        20.23076        -0.92583
C         26.84372        20.92927        -0.99131
C         28.12999        23.06103        -1.10909
C         26.82988        22.35794        -1.16700
C         28.15548        24.54196        -1.32102
C         26.88024        25.21469        -1.67178
C         28.19621        27.44023        -1.47502
C         26.90284        26.73870        -1.68723
C         28.21448        28.82461        -1.36942
C         26.94943        29.57179        -1.19369
C         28.21281        31.75375        -1.17050
C         26.94251        31.03567        -1.62344
C         28.19084        33.11392        -1.05281
C         26.90985        33.85812        -1.38371
C         28.18944        36.02476        -1.10660
C         26.90383        35.32721        -1.01322
C         28.14520        37.50608        -1.31275
C         26.93664        38.26209        -0.91067
C         28.13643        40.44793        -0.99725
C         26.88524        39.65386        -0.87969
C         28.11918        41.80080        -0.40525
C         26.92344        42.49398        -0.30686
C         28.15749        44.50046         0.50050
C         26.91362        43.84623         0.19175
C         28.17529        45.83221         0.99332
C         26.91345        46.39359         1.47141
C         28.12484        48.58878         1.82919
C         26.87763        47.82682         1.99356
C         28.07844        50.08093         1.94123
C         26.89015        50.62258         2.69991
C         28.17113        52.81903         2.70507
C         26.90451        52.08945         2.32833
C         28.14244        54.20320         2.84319
C         26.95060        55.00701         2.77750
C         27.14447        56.40935         2.63507
C         29.41828        12.72519         1.35347
C         30.59023        14.73357         0.57312
C         29.39162        14.03727         0.88904
C         30.58666        16.08977         0.17250
C         29.33156        16.78315         0.02578
C         30.55873        18.77491        -0.72827
C         29.33367        18.13819        -0.41470
C         30.54077        20.09153        -1.38824
C         29.31836        20.91951        -1.25707
C         30.56309        23.03257        -1.83515
C         29.36033        22.28983        -1.37122
C         30.62134        24.52463        -1.71037
C         29.42563        25.25647        -1.59455
C         30.66552        27.33822        -1.31237
C         29.42808        26.67334        -1.49973
C         30.64589        28.78130        -0.96247
C         29.42550        29.57483        -1.19428
C         30.70296        31.70665        -1.02096
C         29.44993        30.97881        -1.07102
C         30.70809        33.14226        -1.04447
C         29.43229        33.88608        -0.66906
C         30.67346        36.03351        -1.50735
C         29.38014        35.34624        -1.09265
C         30.71263        37.49962        -1.13949
C         29.47386        38.25699        -1.36410
C         30.69600        40.36219        -0.59144
C         29.46172        39.73854        -1.14052
C         30.66028        41.66581        -0.11793
C         29.35806        42.32226         0.26470
C         30.59891        44.53246         0.52910
C         29.39773        43.82525         0.35847
C         30.60954        45.90146         0.89587
C         29.37310        46.53969         1.19976
C         30.59632        48.64288         1.74785
C         29.32829        47.93489         1.60281
C         30.57905        49.99715         2.19426
C         29.39120        50.71436         2.34259
C         29.37321        52.07700         2.70386
C         31.79815        16.78111        -0.07033
C         33.04046        18.84113        -0.68251
C         31.80981        18.11918        -0.52220
C         33.09922        20.16671        -1.12935
C         31.86339        20.77803        -1.67510
C         33.16253        22.98420        -1.97141
C         31.85036        22.24870        -1.98604
C         33.13903        24.49948        -1.93911
C         31.85262        25.22404        -1.74137
C         33.16918        27.29279        -1.21075
C         31.86651        26.60854        -1.42665
C         33.21993        28.76903        -0.95490
C         31.94566        29.54002        -0.81099
C         33.17695        31.65909        -1.21332
C         31.94126        30.99617        -1.05780
C         33.17842        33.11464        -1.21981
C         31.91806        33.84307        -1.15871
C         33.13213        36.00086        -1.03843
C         31.94399        35.29180        -1.14948
C         33.17019        37.42837        -0.81666
C         31.90063        38.17108        -0.82930
C         33.17274        40.28050        -0.37744
C         31.89266        39.57905        -0.57934
C         33.18648        41.72529        -0.00702
C         31.88166        42.31660         0.47739
C         33.19622        44.55772         0.56707
C         31.87190        43.82658         0.26901
C         33.08390        45.93826         1.03025
C         31.86268        46.59992         1.12658
C         31.80002        47.96704         1.55072
C         34.28599        20.93605        -1.06228
C         35.53986        23.04718        -1.25886
C         34.36652        22.30231        -1.43330
C         35.58115        24.47537        -1.41059
C         34.39973        25.18573        -1.61981
C         35.66489        27.37138        -1.46974
C         34.39014        26.66466        -1.85150
C         35.67427        28.75679        -1.40240
C         34.45202        29.51061        -1.29466
C         35.69369        31.62655        -1.39760
C         34.40526        30.90670        -1.33599
C         35.66033        33.10524        -1.23310
C         34.37227        33.81439        -1.17760
C         35.65178        35.94256        -0.63099
C         34.44773        35.31186        -1.30155
C         35.63041        37.33176        -0.36503
C         34.38088        38.05445        -0.49955
C         35.60268        40.15927         0.44912
C         34.35871        39.45490        -0.02582
C         35.60970        41.62726         0.55935
C         34.43447        42.37631         0.50925
C         34.37854        43.74229         0.83310
C         36.81684        25.20939        -1.24420
C         38.09987        27.30825        -0.98051
C         36.87502        26.59803        -1.28355
C         38.16663        28.68306        -1.00200
C         37.00117        29.46946        -1.55757
C         38.06176        31.51461        -0.60394
C         36.94137        30.88626        -1.06212
C         38.00272        32.93144        -0.16197
C         36.77935        33.73513        -0.47807
C         38.00663        35.81602         0.08731
C         36.81567        35.20317        -0.38450
C         37.98647        37.21458         0.28692
C         36.82689        37.96298         0.09196
C         36.93821        39.45684         0.30920
C         39.33467        29.41091        -0.59593
C         40.47961        31.53614        -0.01895
C         39.31253        30.78625        -0.42011
C         40.46259        32.88898         0.19907
C         39.25342        33.66889         0.11030
C         39.20902        35.03824         0.27928
O         15.05661        29.18073        -3.43405
O         17.58194        31.27857        -3.49737
O         10.47160        31.87885         0.48961
O         14.80991        44.29450        -1.45893
O         18.72928        33.81437        -3.31385
O         31.20309        29.11858         0.36889
O         26.93531        51.93495         0.85997
O         25.87593        32.23838         0.31002
O         22.51190        55.85686         0.21266
O         22.95122        37.80023        -2.50214
O         22.39243        51.32521         0.24387
O         26.97180        46.68582         2.92258
O         15.09664        26.61693        -3.11008
O         12.47310        26.51784         0.49886
O         23.82337         5.71820         2.50336
O         31.18775        20.01094        -2.71151
O         20.19660         9.83995         1.35966
O         22.81267        49.22116         3.40479
O         12.67455        27.86230        -3.03518
O         14.93274        24.24613        -2.42594
O         28.18989        23.99739         0.04763
O         26.90207        25.93540        -2.93005
O         19.25285        38.69764        -2.88424
O         22.49059        14.10773        -1.06005
O         26.35079        50.11460         3.90757
O         25.42803        15.69061         1.83405
O         33.41652        27.78608         0.13126
O         33.33226        41.35020        -1.40372
O         20.96664        19.69584         1.59507
O         28.74891        37.89520        -2.59518
O         27.73589        50.68101         0.59386
O         16.36726        21.33321         1.85957
O         16.93903        18.01673         2.28799
O         15.98959        45.87875         1.76001
O         20.29467        29.02363        -3.22538
O         23.45151        23.94043         0.45657
O         13.42742        40.69192         1.60120
O         32.63863        44.32915        -0.81685
O         36.94941        33.12590         0.85802
O         28.87518        40.44327        -2.27849
O         15.98876        48.58869         2.07214
O         10.25792        27.83127        -2.22887
O         31.04040        22.56042        -3.14546
O         22.51605        45.72052         2.48440
O         33.32613        23.74224        -3.20231
O         25.01077        37.76948         0.68391
O         34.68707        39.52844         1.41908
O         17.22647        34.26519        -0.11500
O         22.66407        10.95291         3.97813
O         17.91128        41.37827        -2.43078
O         25.08903        56.90364         3.70104
O         35.93828        32.52474        -2.56339
O         26.40078        29.26897         0.12955
O         20.80406        41.52759        -2.32687
O         26.85532        31.14044        -3.01506
O         31.87717        42.09944         1.91934
H         30.93553        41.98718         2.20373
O         15.52198        50.47742        -1.11357
H         16.35757        50.25707        -1.57358
O         12.47589        33.51722         1.06956
H         11.96826        32.74086         1.40376
O         20.39152        32.05758        -0.02263
H         20.62709        31.28129         0.52796
O         24.36442        35.20693         0.97509
H         24.54107        36.12589         1.29750
O         34.69040        35.54824        -2.74177
H         33.90528        35.22290        -3.23384
O         29.45097        33.94487         0.80132
H         29.28805        33.03879         1.14161
O         18.46959        37.26748         0.46821
H         18.04605        36.43335         0.76716
O         20.63354        15.15661         2.79437
H         21.38071        15.74650         3.02764
O         37.24064        29.56642        -3.00466
H         36.70028        30.31070        -3.34912
O         24.21298        17.81385        -2.13394
H         23.85068        18.62291        -2.55432
O         34.20537        26.86139        -3.29163
H         34.80200        26.24447        -3.76646
O         24.00013        47.06924        -0.22665
H         24.13633        46.35107        -0.90116
O         37.66082        40.04458        -0.78865
H         37.23628        39.77103        -1.62784
O         19.21013        18.12967        -1.30501
H         18.69168        18.88966        -1.64939
O         17.34144        44.29900        -1.90713
H         16.56225        44.05684        -2.45862
O          8.60221        29.75539        -2.07822
H          8.72407        28.89197        -2.54227
O         24.66081         9.10891         4.83267
H         24.00565         9.83454         4.97742
O         15.05149        42.65837         1.74881
H         14.80630        41.85719         2.26739
O         24.81317        13.30574        -0.89173
H         24.06742        12.74932        -1.21149
O         23.22909        27.46614         0.56570
H         23.37131        26.55185         0.89534
O         10.84188        39.88050         1.96314
H         11.72588        40.18644         2.28465
O         23.76200        40.54859        -2.73346
H         23.01771        40.74760        -3.33862
O         16.49843        20.39889        -1.29181
O         17.62415        39.56156         0.67759
H         17.03897        38.99847         1.22723
O         16.73181        38.26377        -2.68698
H         17.56635        38.55995        -3.13815
O         29.17203        41.89124         1.70610
H         28.42346        42.41489         2.06940
O         10.22055        32.16900        -2.88668
H          9.72432        31.40166        -3.24635
O         16.67269        27.06402         0.12602
H         17.43175        26.73482         0.65442
O         24.01376        22.28256        -2.76265
H         24.76836        21.86079        -3.22566
O         19.47311        13.70881        -0.35087
H         18.71078        13.12453        -0.54383
O         23.03460        14.95058        -2.09097
H         23.98505        14.66632        -2.13835
O         28.24172        12.57743         3.38932
H         28.10191        13.54919         3.37704
O         19.26962        21.57207        -1.88531
H         18.33026        21.27112        -1.94380
O         15.27662        35.97572        -2.64939
H         15.73034        36.74701        -3.07345
O         24.26865        44.68429        -1.57628
H         23.52072        44.26125        -2.05092
O         23.85922        40.02441         0.83994
H         24.39848        39.46564         1.44484
O         26.78229        33.82065        -2.83032
H         26.83311        32.85104        -3.11634
O         30.66144        35.98399        -2.97911
H         29.91850        36.57027        -3.27330
O         19.70910        22.08753         1.70231
H         20.00096        21.46632         2.40604
O         21.21088        32.93692        -3.47692
H         20.39805        33.03491        -4.02654
O         14.95505        35.01464         0.86912
H         14.23606        34.49035         1.29615
O         25.71277        52.63884         4.27606
H         24.91706        53.05237         4.67039
O          9.19034        29.50512         1.51291
H          8.60792        29.24849         2.25766
H          4.91413        31.26354        -0.04065
H          4.85983        33.70781        -0.37862
H          7.69975        27.12075         0.88848
H          6.28716        29.20355         0.50607
H          6.15846        35.90670        -0.56444
H          7.44237        37.96045        -0.51894
H          9.93712        22.77567         0.61613
H          8.75849        24.93485         0.62994
H          8.65991        39.97435         0.04989
H          9.90115        42.10776         0.18937
H         12.26673        18.50765         0.96302
H         11.12244        20.67015         0.80229
H         11.00288        44.25434         0.39636
H         12.14877        46.48591         0.24615
H         14.81378        14.25947         1.67869
H         13.53945        16.38022         1.37774
H         13.44887        48.72027         0.15216
H         14.88605        50.90082         0.79811
H         17.32468        10.30121         3.03085
H         16.08996        12.24165         2.20323
H         16.22657        52.93937         0.47912
H         17.50198        55.02543         0.76337
H         19.90929         6.19851         4.43238
H         18.65960         8.19083         3.78511
H         18.74552        57.12560         1.12680
H         20.02141        59.26137         1.59434
H         23.40021         3.09966         5.53392
H         21.22040         4.18125         5.11542
H         23.43888        62.52984         2.05724
H         21.27723        61.32181         1.76812
H         25.53166         4.20417         4.95402
H         26.78882         6.02832         3.49049
H         26.77635        59.22539         1.95313
H         25.55798        61.27790         2.31787
H         27.91587         7.97395         2.60441
H         29.15619        10.07787         2.11802
H         29.10016        54.72972         2.97855
H         28.14651        56.75550         2.33796
H         30.38830        12.22268         1.48970
H         31.55195        14.21070         0.68331
H         31.53675        50.49646         2.40613
H         30.32205        52.58544         2.93337
H         32.75231        16.25526         0.08121
H         33.97102        18.35010        -0.36030
H         33.99591        46.44492         1.38068
H         32.74542        48.50349         1.72280
H         35.18986        20.45774        -0.65524
H         36.45305        22.52957        -0.92905
H         36.57389        42.12762         0.73357
H         35.23793        44.21556         1.33132
H         37.73796        24.63896        -1.05220
H         38.97585        26.72219        -0.66132
H         38.90140        37.72383         0.62389
H         37.55096        39.65149         1.22675
H         40.25478        28.85015        -0.36916
H         41.42694        30.98676         0.08752
H         41.39597        33.40785         0.46371
H         40.13407        35.57910         0.53169
