         272
 CSIRO Nanostructure Databank - Neutral Graphene Oxide Data Set
C        -11.10093         0.68196        -0.87275
C         -9.88354         1.52972        -0.56352
C         -8.64760         0.63475        -0.42300
C         -7.35309         1.31957        -0.14981
C         -6.03041         0.59347        -0.24167
C         -4.79832         1.34432         0.18418
C         -3.44030         0.68817        -0.06630
C         -2.29018         1.37280         0.62041
C         -1.17444         0.58672         1.21752
C          0.08901         1.37566         1.63481
C          1.36957         0.67244         1.21668
C          2.68117         1.35820         1.40041
C          3.84418         0.65570         1.25542
C          5.11414         1.35793         0.93750
C          6.40292         0.60453         0.81247
C          7.45584         1.16536        -0.11450
C          8.87402         0.59316        -0.02234
C          9.70303         1.01457        -1.26833
C         11.07212         0.38546        -1.10914
C         -9.55362         2.71511        -1.52628
C         -8.40059         3.54219        -0.93538
C         -7.39758         2.83313        -0.08031
C         -6.21736         3.59520         0.45023
C         -4.92742         2.81983         0.82498
C         -3.65428         3.62597         0.63552
C         -2.38275         2.88250         0.85979
C         -1.16899         3.59850         1.35746
C          0.09705         2.82271         1.12647
C          1.38381         3.56126         1.14630
C          2.69208         2.87212         1.59758
C          3.77185         3.48921         0.72415
C          4.90427         2.65812         0.20304
C          6.04755         3.32666        -0.51310
C          7.30926         2.53782        -0.69342
C          8.52085         3.24406        -1.20600
C          9.64997         2.53012        -1.43512
C         -8.29723         4.88374        -1.15206
C         -7.27252         5.74526        -0.56276
C         -6.20582         5.15957         0.35413
C         -4.84538         5.82510         0.10208
C         -3.63963         5.13973         0.61991
C         -2.58223         5.83646         1.46215
C         -1.19640         5.09635         1.46781
C          0.05694         5.80947         0.93311
C          1.35644         5.07127         1.27696
C          2.65332         5.78287         1.01804
C          3.79732         4.95592         0.52882
C          4.72573         5.50029        -0.30733
C          5.98805         4.80400        -0.73173
C          7.35727         5.50361        -0.64968
C          8.40379         4.73570        -1.53946
C         -7.26722         7.10633        -0.66057
C         -6.26264         7.92469         0.14944
C         -4.85700         7.33822        -0.04138
C         -3.78617         8.05232         0.79038
C         -2.49840         7.34913         1.20081
C         -1.18563         8.07978         1.11837
C          0.11615         7.31101         1.22717
C          1.41185         8.04273         1.05751
C          2.75499         7.31178         0.87871
C          3.43750         7.72705        -0.41015
C          4.34852         6.73429        -1.03351
C          6.32969         7.77400        -1.31336
C          7.35189         7.02564        -0.82446
C         -6.14737         9.39515        -0.24533
C         -4.98633        10.07585        -0.15050
C         -3.77326         9.52564         0.54017
C         -2.45211        10.30134         0.56693
C         -1.15414         9.46081         0.55272
C          0.02994        10.04744         0.25815
C          1.39996         9.54482         0.72259
C          2.56874         9.99179        -0.14449
C          3.57894         9.19951        -0.60296
C          4.86116         9.79729        -1.00549
C          6.08386         9.21640        -1.18695
C        -11.11286        -0.65654        -0.97696
C         -9.89932        -1.50885        -1.27266
C         -8.60923        -0.70593        -1.10313
C         -7.32252        -1.46308        -1.13640
C         -5.99494        -0.79808        -0.84944
C         -4.71256        -1.57546        -0.67004
C         -3.39439        -0.80667        -0.50264
C         -2.30495        -1.60789         0.20433
C         -1.18373        -0.88215         0.91600
C          0.10280        -1.63285         0.94746
C          1.34860        -0.80815         1.06312
C          2.57736        -1.56726         1.39183
C          3.87221        -0.82553         1.44138
C          5.11641        -1.62759         1.16571
C          6.40066        -0.90931         0.88799
C          7.44354        -1.54623        -0.00465
C          8.84885        -0.97444         0.17418
C          9.89486        -1.71379        -0.65989
C         11.12874        -0.94267        -0.87613
C         -9.76585        -2.84969        -0.56694
C         -8.61591        -3.58294        -0.59473
C         -7.35167        -2.99087        -1.29845
C         -5.98472        -3.69214        -0.98882
C         -4.80694        -3.02614        -0.30702
C         -3.83425        -3.67448         0.43473
C         -2.47221        -3.06374         0.55707
C         -1.30231        -3.79839         1.17713
C          0.02907        -3.11281         1.16415
C          1.28264        -3.85160         1.53341
C          2.53057        -3.07375         1.28127
C          3.56701        -3.64266         0.36254
C          4.89397        -2.92798         0.40833
C          6.13974        -3.74053         0.16531
C          7.27735        -2.95300        -0.46057
C          8.42976        -3.76868        -1.06134
C          9.75583        -3.02397        -0.99586
C         -8.67734        -5.02693        -0.34782
C         -7.66246        -5.77514         0.20419
C         -6.57384        -5.05461         0.89276
C         -5.26807        -5.77577         1.11765
C         -3.94255        -5.02728         1.08920
C         -2.65434        -5.83474         1.30372
C         -1.32754        -5.15681         1.25833
C         -0.09164        -5.99531         1.43281
C          1.32379        -5.36446         1.31614
C          1.95581        -5.79820        -0.04164
C          3.27796        -4.96094        -0.48152
C          4.59641        -5.76903        -0.63392
C          5.94122        -5.08794        -0.50424
C          7.22691        -5.86016        -0.37377
C          8.40531        -5.21319        -0.55209
C         -7.56370        -7.20223         0.05807
C         -6.40854        -7.92449         0.32324
C         -5.24133        -7.25623         0.91823
C         -4.07168        -7.93809         1.14146
C         -2.72257        -7.33812         1.29378
C         -1.48911        -8.18088         0.97191
C         -0.15548        -7.46038         1.08924
C          1.06616        -8.07170         0.46511
C          2.16841        -7.31626         0.09818
C          3.41052        -7.96166        -0.30100
C          4.57506        -7.25486        -0.57086
C          5.88351        -7.94765        -0.95195
C          7.05089        -7.31508        -0.08914
C         -6.35380        -9.23135        -0.34000
C         -5.28154       -10.01312        -0.66397
C         -3.97814        -9.82395        -0.05278
C         -2.71913        -9.96052        -0.54460
C         -1.51533        -9.49842         0.20816
C         -0.20935       -10.07045        -0.20259
C          1.00040        -9.46849         0.05295
C          2.25166       -10.12794        -0.24461
C          3.42597        -9.42284        -0.33231
C          4.69673       -10.10457        -0.52174
C          5.84552        -9.43867        -0.74560
O          2.98661        -4.51295        -1.78871
H          2.01615        -4.69372        -1.94149
O         -1.10739         4.26457         2.65499
O         -2.35312         1.24907        -0.83649
O          7.74562         5.28017         0.73358
H          8.56269         5.79145         0.91060
O         -5.19727        -1.15584        -1.99423
O          6.17327        -1.57281         2.17324
O          2.93331         3.11964         2.98356
H          2.17305         2.78376         3.50456
O          6.91152        -1.84072        -1.33209
O          5.28844         7.12962        -2.00289
O          0.86844         7.75237         2.39039
O          0.81133         3.07306        -0.11213
O          1.37332         0.06448        -0.11719
O         -6.50993         5.58885         1.67690
O          6.95387         1.30970        -1.47225
O         -4.69997        -5.16300         2.32657
O          3.96727        -2.63923        -0.64343
O         -7.32938         3.23774         1.32406
O          7.25707        -6.61675         2.26060
H          7.06913        -5.65079         1.97063
O         -2.77482         3.36476        -0.47330
O         -0.05071        -6.99036         2.49538
O         -7.56963        -3.27321        -2.69626
O          2.17746         5.49182         2.38358
O         -1.93120         8.00705         2.38033
O         -2.66651        -6.60556         2.55952
O          9.67943         5.36365        -1.40596
H         10.09682         5.04306        -0.58050
O         -1.95722        -2.64137        -0.75057
O         -4.21253         8.96548         1.83243
O         -1.54365        -9.45367         1.68223
O          3.16727        -1.18503         2.67572
O          9.21093        -1.27876         1.49471
O         -7.82681        -0.73098        -2.32246
O          6.53936        -7.44720         1.36073
H          5.58825        -7.14600         1.37013
O          6.59434        -4.11413         1.52196
H          6.69061        -3.25939         2.04178
O          2.18278        -5.93904         2.30982
H          1.60023        -6.42415         2.94707
O          6.12977         1.38210         2.00244
O         -5.47937         0.45117         1.11845
O         -3.82322         5.38508        -0.83376
O          5.72728         3.90690        -1.83585
O         -4.53560         7.64918        -1.42138
H         -3.96885         6.91910        -1.76789
O         -8.13439         0.66779         0.93195
O          0.10671         1.46793         3.07281
H         -0.46103         0.74978         3.43692
O          0.97334        -5.63283        -1.00108
O         -4.10674        -9.32405         1.25915
O          3.68821         2.75453        -0.56512
O         -1.59572        -0.37506         2.24118
O        -10.18098         2.15431         0.70350
H         -9.49110         1.86082         1.34874
O         -6.75733        -3.92310         1.34247
O        -10.70508         3.53111        -1.68417
H        -11.05863         3.69518        -0.78342
O         -5.79500        -4.77529        -1.53723
H         -7.10326        -4.11792        -2.89704
O        -10.06197        -1.86167        -2.66793
H         -9.16502        -2.09155        -3.01713
O          2.99451         6.86816        -1.52199
O          0.29569        -2.53121        -0.17359
O          3.61177         7.75477         1.94777
H          3.17103         7.49281         2.78691
O          2.18318        -3.54662         2.63159
O          5.34408        -5.21806        -1.80536
O         -2.93362        -0.76828        -1.87650
H         -2.02081        -0.41003        -1.90486
O         -3.12640         5.70344         2.78364
H         -2.66751         6.35040         3.36473
O         -6.60883         7.77632         1.54025
H         -7.57518         7.64474         1.63584
O          6.21946        -7.70479        -2.31820
H          5.94277        -6.77756        -2.53926
O          8.13593        -3.91445        -2.47424
H          7.78322        -3.04805        -2.78259
O         -4.96559         2.61750         2.23773
H         -5.90483         2.46222         2.49287
O         -2.42382        11.08580         1.76286
H         -2.69524        10.48975         2.49605
O          9.16928         0.40199        -2.46201
H          8.23913         0.71954        -2.57357
O          9.49785         1.15906         1.12826
H          9.60073         0.38634         1.75852
O          1.60905        10.26267         1.96745
H          1.12125         9.76551         2.66356
O         -0.07068         5.74619        -0.51008
H          0.10545         4.81913        -0.80692
H         12.09291        -1.47523        -0.85841
H         11.98590         0.97459        -1.27886
H         10.53429         3.04385        -1.84697
H          8.09051         4.83867        -2.61048
H          8.17369         7.54755        -0.30938
H          6.95432         9.88837        -1.26212
H          4.85292        10.90034        -0.98138
H          2.68302        11.08596        -0.21543
H          0.01742        11.09115        -0.09688
H         -2.42658        11.00828        -0.30218
H         -4.93959        11.12049        -0.49768
H         -7.02852         9.88431        -0.69058
H         -8.03028         7.62928        -1.25979
H         -9.06601         5.36806        -1.77599
H         -9.26081         2.32681        -2.53787
H        -12.06198         1.21437        -0.79951
H        -12.08284        -1.16762        -1.08363
H        -10.68534        -3.32744        -0.19195
H         -9.56209        -5.55423        -0.74485
H         -8.39143        -7.71002        -0.46235
H         -7.30791        -9.51027        -0.81762
H         -5.42464       -10.83302        -1.38401
H         -2.55567       -10.34709        -1.55988
H         -0.21959       -11.07328        -0.65730
H          2.25522       -11.21928        -0.38445
H          4.70165       -11.20312        -0.46127
H          6.78467        -9.98768        -0.90799
H          7.99504        -7.90005        -0.11572
H          9.35308        -5.77184        -0.48364
H         10.57947        -3.51003        -1.54514
