         477
 CSIRO Nanostructure Databank - Neutral Graphene Oxide Data Set
C         37.67798        50.24158        -1.08069
C         36.50564        50.96675        -1.22642
C         37.65324        52.97572        -0.53200
C         36.49323        52.34334        -0.94770
C         40.16412        48.71517        -0.79486
C         40.10368        50.10405        -0.47285
C         38.87635        50.86210        -0.65416
C         40.08891        52.91821         0.03503
C         38.86659        52.25877        -0.37648
C         40.13925        54.32283         0.22679
C         42.51966        48.53637        -0.16892
C         41.33859        47.98197        -0.69081
C         42.44556        49.91448         0.34689
C         41.25913        50.73987         0.01789
C         42.48377        52.82179         0.62324
C         41.27903        52.15614         0.24759
C         42.53671        54.23864         0.67389
C         41.32217        54.96600         0.51512
C         44.99781        45.76178        -0.60410
C         43.81666        46.45993        -0.55665
C         44.99251        48.46795         0.19452
C         43.77237        47.82736        -0.14918
C         45.02563        49.79718         0.93864
C         43.68963        50.56266         0.88171
C         45.03200        52.78597         0.89696
C         43.70551        52.06358         0.96645
C         45.02312        54.22230         0.55610
C         43.79766        54.93430         0.69342
C         44.99966        57.04154         0.45939
C         43.87477        56.37216         0.80506
C         47.50757        44.27708        -0.59905
C         47.47944        45.68249        -0.39670
C         46.23654        46.40104        -0.33104
C         47.47918        48.48025         0.18608
C         46.22209        47.78153         0.03158
C         47.47419        49.90491         0.38273
C         46.25905        50.61297         0.59302
C         47.48386        52.74379         0.52927
C         46.27447        52.01530         0.65546
C         47.47625        54.19716         0.35739
C         46.21601        54.88346         0.23634
C         47.44766        57.06639        -0.27894
C         46.11052        56.31856        -0.25655
C         47.49279        58.52556        -0.07979
C         49.94673        44.25637        -0.54406
C         48.69711        43.58680        -0.64198
C         49.95042        45.67443        -0.35988
C         48.71694        46.37573        -0.24132
C         49.94966        48.49819         0.11603
C         48.70244        47.79212         0.01863
C         49.94525        49.91014         0.27460
C         48.70921        50.61844         0.36639
C         49.96135        52.74760         0.53141
C         48.71472        52.03974         0.47648
C         49.92530        54.22062         0.85607
C         48.68237        54.88926         0.32629
C         49.95972        57.09340         0.29547
C         48.74072        56.31803        -0.02348
C         49.93505        58.49765         0.26232
C         48.66227        59.17898         0.12025
C         52.44683        41.42627        -0.67419
C         51.23224        42.13518        -0.68505
C         52.46215        44.28635        -0.82967
C         51.17978        43.52477        -0.61730
C         52.43680        45.70309        -0.31361
C         51.20129        46.38772        -0.22881
C         52.42410        48.50758         0.13699
C         51.18885        47.79540         0.01942
C         52.39850        49.91785         0.32583
C         51.18306        50.62517         0.34469
C         52.42769        52.80274         0.43858
C         51.16860        52.06578         0.47150
C         52.41419        54.26058         0.48259
C         51.21033        54.95394         0.54992
C         52.38354        57.13003         0.65513
C         51.18474        56.39772         0.51373
C         52.39365        58.54620         0.57858
C         51.15961        59.23863         0.39766
C         52.36940        61.35810         0.32269
C         51.18690        60.65976         0.29609
C         54.88263        39.92107        -0.01467
C         54.89259        41.32528        -0.24530
C         53.68658        42.06399        -0.52867
C         54.89825        44.18855        -0.30674
C         53.72021        43.51467        -0.48003
C         54.90879        45.60149         0.20570
C         53.64913        46.38187        -0.09739
C         54.93298        48.45866         0.17352
C         53.66320        47.78187         0.08716
C         54.95318        49.93677         0.32752
C         53.66027        50.67047         0.45267
C         54.87263        52.88029         0.02413
C         53.62092        52.13755         0.31309
C         54.90341        54.32874         0.34366
C         53.67567        54.96148         0.54248
C         54.94646        57.14907         0.89841
C         53.63323        56.38827         0.88426
C         54.89103        58.60832         0.69082
C         53.64174        59.27991         0.60466
C         54.86252        61.42819         0.44761
C         53.62508        60.69798         0.45382
C         54.89106        62.86047         0.26378
C         57.31078        39.88336         0.32006
C         56.04118        39.23294         0.26066
C         57.33068        41.31998         0.12910
C         56.13964        42.00538        -0.15744
C         57.48620        44.22073        -0.14163
C         56.18244        43.46181        -0.36963
C         57.42949        45.68551         0.10471
C         56.21666        46.35121         0.04025
C         57.40581        48.51537         0.44913
C         56.14790        47.78249         0.15950
C         57.40870        50.02352         0.42693
C         56.18380        50.61213        -0.25601
C         57.49806        52.84139        -0.39294
C         56.13988        52.13776        -0.26999
C         57.40534        54.36488        -0.14791
C         56.14774        55.04795         0.29275
C         57.40528        57.19679         0.58561
C         56.18832        56.42623         0.56003
C         57.36973        58.60777         0.69695
C         56.10730        59.32145         0.64045
C         57.34831        61.52236         0.81423
C         56.08332        60.74054         0.56247
C         57.33965        62.91818         0.24636
C         56.06891        63.54960         0.11161
C         59.76051        37.05738         0.47976
C         58.55916        37.71415         0.49514
C         59.80897        39.87327         0.24608
C         58.50410        39.13270         0.49717
C         59.60843        41.20901         0.96280
C         58.54475        42.07768         0.39038
C         59.85905        44.20207         0.89384
C         58.65277        43.44800         0.32597
C         59.88385        45.68038         0.54736
C         58.70314        46.39008         0.26996
C         59.90739        48.61328         0.39457
C         58.68328        47.81330         0.33350
C         59.88301        50.06011         0.68180
C         58.68144        50.78008         0.44499
C         59.90028        52.88611         0.50755
C         58.67282        52.17144         0.32053
C         59.93429        54.30879         0.40090
C         58.69846        55.08223         0.12635
C         59.87369        57.16720         0.68002
C         58.67330        56.50238         0.54559
C         59.90179        58.65306         0.95871
C         58.59603        59.36376         0.68590
C         59.84157        61.48273         0.37320
C         58.60909        60.74308         0.55405
C         59.81412        62.89539         0.18509
C         58.55696        63.59917         0.06793
C         59.77652        65.66959        -0.42155
C         58.59824        64.99735        -0.26350
C         62.38608        35.93395        -0.64645
C         62.36818        37.02647         0.34477
C         61.03984        37.74356         0.70632
C         62.31370        39.94207         0.82674
C         61.09929        39.21308         0.69243
C         62.46215        41.41524         0.75126
C         61.49982        42.28525         0.00240
C         62.38162        44.24306         1.08592
C         61.22521        43.58562         0.61690
C         62.36267        45.66956         1.16446
C         61.24143        46.34700         0.41541
C         62.30952        48.61195         1.23543
C         61.24055        47.87999         0.53934
C         62.31107        50.01736         1.25179
C         61.09875        50.74269         0.89231
C         62.30987        52.88105         1.10375
C         61.09258        52.17028         0.86708
C         62.31902        54.27693         0.93512
C         61.13202        55.00787         0.63856
C         62.32883        57.19440         0.74368
C         61.13481        56.46869         0.64615
C         62.35750        58.62679         0.64004
C         61.06857        59.28711         0.20665
C         62.29705        61.48050         0.24734
C         61.07965        60.79061         0.32467
C         62.28203        62.90805         0.09209
C         61.04141        63.60714         0.01046
C         62.27442        65.70496        -0.41349
C         61.04394        65.01139        -0.27400
C         62.34181        67.12676        -0.75102
C         64.47356        36.78914        -1.85179
C         63.27246        35.88200        -1.66093
C         64.63815        37.73575        -0.66005
C         63.57844        37.88091         0.42246
C         64.83640        39.82024         1.45843
C         63.51311        39.21248         1.02083
C         64.66290        41.29795         1.99895
C         63.57043        42.06878         1.27952
C         64.75510        44.24157         1.72627
C         63.58644        43.51602         1.35474
C         64.71863        45.66800         1.82852
C         63.50762        46.36540         1.52535
C         64.62707        48.54371         2.32868
C         63.40980        47.81551         1.81764
C         64.53442        50.07218         2.51570
C         63.47596        50.77784         1.66731
C         64.69361        52.96299         1.90969
C         63.50022        52.17017         1.56252
C         64.76107        54.30189         1.58419
C         63.61006        54.98190         0.96091
C         64.82187        57.25030         1.20069
C         63.61932        56.48617         0.81928
C         64.76611        58.74820         1.34457
C         63.52313        59.36234         0.75576
C         64.77679        61.43978         0.34824
C         63.54993        60.76847         0.44243
C         64.75996        62.84472        -0.10204
C         63.50194        63.62434        -0.03021
C         64.75082        65.86291        -0.17860
C         63.49725        65.00502        -0.25579
C         64.74879        66.90258        -1.32124
C         63.48195        67.71658        -1.17022
C         67.09343        34.63247        -3.68012
C         65.89788        35.22242        -3.35815
C         67.07896        36.48055        -1.62365
C         65.74394        35.85250        -1.99819
C         67.32889        37.78392        -1.37021
C         65.56391        38.88477        -0.72709
C         67.18051        40.28018         0.54442
C         65.85696        39.66476         0.35071
C         67.21951        41.45781         1.27464
C         66.06898        42.03506         2.08097
C         67.18016        44.27021         2.00297
C         66.00009        43.54996         1.90338
C         67.17153        45.70652         2.04613
C         65.92994        46.41362         2.05646
C         67.13378        48.56326         2.10555
C         65.92394        47.83694         2.18555
C         67.16204        50.01284         2.13105
C         65.91881        50.76169         2.50300
C         67.24665        52.95144         2.22968
C         65.91939        52.26735         2.42492
C         67.26044        54.43721         2.07965
C         65.96827        55.14400         1.82276
C         67.25208        57.33109         1.45353
C         65.99974        56.59296         1.45509
C         67.27133        58.67875         1.07787
C         66.05804        59.42201         0.93653
C         67.28891        61.53694         0.48149
C         66.03847        60.78473         0.58913
C         67.31357        62.85083         0.10333
C         66.05868        63.57064        -0.23326
C         67.32728        65.76962        -0.47939
C         66.06160        65.06800        -0.11315
C         67.27140        67.09284        -1.12419
C         66.05681        67.69392        -1.44371
C         67.29434        69.58291        -2.43379
C         66.08466        68.95332        -2.10060
C         69.47619        32.93092        -4.11438
C         69.47172        34.02331        -3.19723
C         68.26898        34.71719        -2.87342
C         69.57942        36.26554        -1.38391
C         68.26093        35.53407        -1.58680
C         69.63426        37.49281        -0.70922
C         68.33975        38.14417        -0.29724
C         69.65291        40.05073         0.65511
C         68.40063        39.59860         0.14320
C         69.70991        41.23260         1.47500
C         68.52432        42.13968         1.46052
C         69.68127        44.32850         2.40138
C         68.50189        43.57777         1.88300
C         69.65511        45.74270         2.25637
C         68.39509        46.43255         2.07597
C         69.60879        48.56492         1.88963
C         68.37372        47.84947         2.02794
C         69.58232        49.95670         1.59928
C         68.33879        50.67202         1.77866
C         69.54899        52.84929         1.11554
C         68.45041        52.15378         1.86288
C         69.68767        54.31712         1.19168
C         68.57479        55.10921         1.79014
C         69.71307        57.22364         0.88613
C         68.54027        56.59010         1.57020
C         69.82956        58.69900         1.21759
C         68.56112        59.38014         0.65672
C         69.87595        61.54308         0.71339
C         68.53323        60.86072         1.04296
C         69.88397        62.96135         0.22393
C         68.58244        63.55622        -0.20138
C         69.87388        65.76856        -0.37140
C         68.59430        64.98255        -0.62861
C         69.82625        67.14192        -1.07040
C         68.54703        67.52278        -1.81244
C         69.76808        69.50790        -2.81120
C         68.53145        68.95343        -2.29139
C         69.75534        70.64864        -3.65041
C         71.83554        32.56409        -3.72699
C         70.63046        32.21553        -4.36881
C         71.87376        33.64762        -2.86088
C         70.71563        34.40730        -2.58422
C         72.01078        36.25817        -1.48922
C         70.77857        35.62685        -1.79517
C         72.05744        37.44004        -0.77185
C         70.86597        38.08312        -0.35308
C         72.02289        39.62115         1.18569
C         70.85501        39.27336         0.47438
C         72.01242        40.65674         2.10236
C         70.85726        41.45736         2.23436
C         72.00462        44.49884         3.17231
C         70.84917        43.74292         2.89829
C         72.02794        45.84644         2.85267
C         70.85717        46.48627         2.39252
C         72.04565        48.59771         1.80475
C         70.85308        47.89152         2.03339
C         72.01139        49.92407         1.38321
C         70.79899        50.61630         1.26639
C         72.00911        52.76785         0.50068
C         70.78101        52.01841         0.77737
C         71.98293        54.11981         0.35771
C         70.82991        54.92053         0.69648
C         72.18090        57.13760         0.43745
C         70.90298        56.40431         0.53354
C         72.23349        58.49574         0.44664
C         71.08045        59.34809         0.65154
C         72.25179        61.41187        -0.06216
C         71.09696        60.72047         0.46131
C         72.26718        62.72748        -0.43732
C         71.11183        63.58162        -0.35637
C         72.30719        65.63797        -1.08831
C         71.11264        64.93185        -0.67974
C         72.32754        66.95010        -1.43487
C         71.09388        67.76019        -1.55923
C         72.18261        69.37441        -3.15190
C         71.02051        68.87554        -2.54900
C         72.14027        70.48923        -3.99166
C         70.92209        71.13394        -4.22890
O         69.89455        56.87495        -0.51040
O         60.05754        41.39912         2.08985
O         65.96075        51.59477         3.71298
O         60.85273        48.43767        -0.75731
O         63.68335        47.93819         3.26878
O         54.31145        56.71267         2.15346
O         57.03706        43.87570        -1.50177
O         42.74330        49.98792         1.83783
O         66.90126        65.61604         0.94712
O         58.11312        55.03575        -1.24887
O         66.51873        55.02023         3.19005
O         68.64316        63.96144        -1.64231
O         64.78586        37.09202         0.63902
O         70.90499        42.39624         3.26579
O         48.26431        56.60970        -1.41151
O         70.44910        68.17329        -0.26495
O         61.80630        36.90934         1.66029
O         63.90575        55.61398        -0.34908
O         64.16551        41.16794         3.30083
O         57.21377        49.34538         1.69908
O         44.37800        52.52018         2.18893
O         55.29395        52.59859        -1.37569
O         54.51838        50.35032         1.65368
O         65.40932        63.06231        -1.43675
O         66.46358        38.81315        -1.81250
O         68.70586        43.22827         0.43686
O         70.05522        62.67155         1.65218
O         68.93498        56.03804         2.86622
O         68.25831        52.60369         3.23909
O         69.72109        52.28330        -0.21646
O         45.22163        49.42677         2.33519
H         44.32236        49.34092         2.73016
O         63.97089        50.27916         3.83250
H         64.54850        49.84116         4.49184
O         45.68816        56.22086        -1.65910
H         46.51517        56.09149        -2.17991
O         64.60915        66.59822         1.05614
H         65.49944        66.61891         1.48500
O         64.66225        66.16308        -2.56977
H         64.44182        66.79281        -3.28677
O         69.89145        66.01793         1.05198
H         70.35958        66.87594         1.18300
O         69.87876        58.77685         2.65204
H         69.44009        59.61787         2.93737
O         65.49502        34.79087        -1.04584
H         66.35751        34.48754        -0.66792
O         57.36120        61.72222         2.29079
H         56.57341        62.26517         2.51031
O         60.86897        58.98428        -1.20285
H         61.63091        59.34142        -1.70512
O         64.65417        58.99682         2.79792
H         65.46247        58.63630         3.22312
O         64.29642        37.56067        -3.04496
H         65.07734        38.15411        -3.13530
O         49.79873        54.30112         2.32832
H         50.55228        53.80798         2.71798
O         60.17246        58.83097         2.37652
H         59.34365        58.67239         2.87441
O         59.69057        44.14402         2.34895
H         59.84431        43.20217         2.62021
O         68.63630        59.35299        -0.78208
H         68.93155        58.45709        -1.06799
O         61.12155        42.03553        -1.16031
O         66.52572        41.84037         3.44347
H         65.68344        41.58712         3.93217
O         54.83814        45.40992         1.67641
H         54.91850        46.29484         2.09522
O         59.79897        39.89585        -1.20003
H         60.39499        40.61747        -1.53277
O         56.26492        50.18770        -1.63911
H         56.66360        50.92797        -2.15367
O         68.62461        66.68672        -3.02985
H         67.76415        66.74959        -3.49678
O         68.12453        34.58488        -0.48240
H         68.89169        33.97501        -0.51562
O         68.36476        60.94298         2.48493
H         68.72513        61.82371         2.75170
O         61.57889        46.04878        -0.98486
H         61.18232        46.77294        -1.52780
O         65.32618        39.08891         2.59605
H         64.91047        39.57000         3.36915
O         67.90498        37.43357         0.90710
H         67.00214        37.73446         1.16264
O         52.54942        44.44460        -2.29811
H         52.58467        43.54422        -2.68640
O         57.84743        52.61992        -1.79112
H         58.19672        53.48248        -2.13099
H         37.65795        49.16528        -1.29618
H         35.58581        50.46393        -1.55517
H         37.61543        54.05148        -0.31626
H         35.56336        52.91796        -1.05815
H         39.27670        48.20783        -1.19320
H         39.23352        54.92923         0.09803
H         41.32395        46.94144        -1.04055
H         41.32976        56.06154         0.58723
H         44.97055        44.70292        -0.89129
H         42.88670        45.93213        -0.80246
H         45.03951        58.13210         0.58347
H         43.02441        56.92340         1.23169
H         46.57128        43.71361        -0.70051
H         46.55889        59.10310        -0.11680
H         48.66684        42.49876        -0.78409
H         48.63138        60.27138         0.22730
H         52.39504        40.32976        -0.70045
H         50.30628        41.54378        -0.68185
H         52.33135        62.45051         0.22402
H         50.25262        61.22158         0.17038
H         53.93663        39.36487        -0.05137
H         53.94876        63.41350         0.16273
H         55.98065        38.14959         0.42944
H         56.01474        64.61924        -0.13368
H         59.78065        35.95897         0.49027
H         57.63305        37.12318         0.46836
H         59.74631        66.74093        -0.66138
H         57.65801        65.55257        -0.37940
H         61.58452        35.18277        -0.59054
H         61.42495        67.73058        -0.68704
H         63.17846        35.06614        -2.39363
H         63.47381        68.78287        -1.44145
H         67.16928        34.10502        -4.64376
H         65.04511        35.16800        -4.05030
H         67.24191        70.59949        -2.84899
H         65.14426        69.47342        -2.32910
H         68.53678        32.62424        -4.59419
H         68.80587        71.15469        -3.87176
H         72.74706        31.98191        -3.91942
H         70.60722        31.36212        -5.06051
H         72.82576        33.90877        -2.37859
H         72.95432        35.80798        -1.82631
H         73.03576        37.88965        -0.55430
H         72.93139        39.01491         1.07517
H         72.88973        40.86926         2.72634
H         72.88914        44.00080         3.58937
H         72.94925        46.42298         3.00867
H         73.01687        48.09471         1.90020
H         72.95848        50.42848         1.15029
H         72.95920        52.23085         0.37337
H         72.90839        54.63618         0.06847
H         73.11702        56.57158         0.33214
H         73.21756        58.97072         0.31907
H         73.18197        60.83892        -0.18212
H         73.20758        63.14125        -0.82770
H         73.25994        65.08806        -1.09345
H         73.29095        67.40860        -1.70002
H         73.15252        68.89546        -2.96150
H         73.06431        70.86309        -4.45318
H         70.88366        72.01705        -4.88148
