         404
 CSIRO Nanostructure Databank - Neutral Graphene Oxide Data Set
C          1.21692         2.12767         0.70522
C          1.20744         3.53052         0.69355
C          2.40511         1.42634         0.57750
C          2.39556         4.26537         0.53670
C          1.24920         6.47081         0.83574
C          1.29319         7.84949         0.95301
C          2.41548         5.72214         0.55829
C          2.49231         8.56107         0.72400
C          1.66387        10.61627         1.82777
C          1.83449        11.91172         2.26577
C          2.59770         9.98581         0.95814
C          2.86812        12.71687         1.72150
C          2.18944        14.79144         3.00767
C          2.36555        16.10373         3.32131
C          3.11843        14.06913         2.16366
C          3.65171        16.77430         3.08265
C          3.74161        18.25034         3.13210
C          3.63188         2.12287         0.41456
C          3.62365         3.55594         0.37550
C          4.85675         1.42245         0.30454
C          4.85040         4.26102         0.18344
C          3.63274         6.42025         0.32156
C          3.65560         7.85104         0.33248
C          4.85243         5.69180         0.11686
C          4.84883         8.57741        -0.01270
C          3.68184        10.72327         0.41438
C          3.68339        12.14666         0.69175
C          4.81570        10.00709        -0.15867
C          4.44809        13.06087        -0.06925
C          4.22427        14.76687         1.63756
C          4.67601        16.03526         2.23141
C          4.80343        14.32690         0.41203
C          5.87945        16.78925         1.64350
C          4.66786        18.93520         2.41869
C          5.67169        18.29735         1.58953
C          6.07431         2.10426         0.15007
C          6.07198         3.54306         0.06938
C          7.31050         1.40486         0.07843
C          7.29820         4.24225        -0.11257
C          6.06351         6.39354        -0.09867
C          6.05444         7.82831        -0.20397
C          7.29357         5.66606        -0.21879
C          7.27177         8.51069        -0.46254
C          6.00811        10.63746        -0.69043
C          6.06536        12.00623        -1.15663
C          7.21462         9.89471        -0.74111
C          7.23090        12.74844        -1.36942
C          5.73729        15.18776        -0.27958
C          6.32126        16.29806         0.27825
C          7.27796        14.17620        -1.48042
C          7.44347        16.99129        -0.32658
C          6.54364        19.02730         0.83157
C          7.57624        18.40311         0.02384
C          8.52574         2.08202        -0.07359
C          8.53212         3.52352        -0.18485
C          9.76526         1.38069        -0.09894
C          9.75519         4.21218        -0.35727
C          8.52419         6.35296        -0.41948
C          8.52517         7.77503        -0.53964
C          9.76151         5.63748        -0.48344
C          9.75319         8.43968        -0.68157
C          8.46982        10.55660        -1.15473
C          8.50757        12.02408        -1.44554
C          9.73331         9.91022        -0.70320
C          9.78320        12.77903        -1.41048
C          8.45800        14.93653        -1.40588
C          8.43916        16.35754        -1.09817
C          9.74042        14.23355        -1.51499
C          9.64723        17.14959        -1.45006
C          8.65675        19.16308        -0.38487
C          9.78719        18.56266        -1.02157
C         10.98239         2.04246        -0.27555
C         10.99584         3.48963        -0.45036
C         12.21780         1.34311        -0.18673
C         12.19599         4.16409        -0.67376
C         10.99651         6.32679        -0.65433
C         10.99771         7.75297        -0.74767
C         12.23282         5.59467        -0.74044
C         12.22948         8.46821        -0.91518
C         11.00409        10.67164        -0.83636
C         10.96565        12.07761        -1.30741
C         12.26181         9.90055        -0.96153
C         12.25679        12.74421        -1.49319
C         10.92900        14.93909        -1.55368
C         10.95477        16.40281        -1.69674
C         12.22272        14.24031        -1.58082
C         12.24184        17.12161        -1.53329
C         10.98362        19.24161        -1.16605
C         12.23841        18.59093        -1.47564
C         13.44604         1.98184        -0.40545
C         13.42833         3.36578        -1.02641
C         14.66326         1.31879        -0.19794
C         14.72736         4.11568        -0.86012
C         13.46161         6.28982        -0.86778
C         13.47112         7.73168        -0.95271
C         14.72685         5.56655        -0.93979
C         14.68999         8.42089        -1.07471
C         13.45896        10.60113        -1.08818
C         13.51487        12.04513        -1.11923
C         14.70920         9.86484        -1.27304
C         14.69163        12.74138        -0.94150
C         13.40484        14.98262        -1.05564
C         13.40558        16.43866        -1.29096
C         14.68674        14.21905        -0.78957
C         14.66025        17.18542        -1.06442
C         13.43150        19.27788        -1.51600
C         14.72091        18.52776        -1.76498
C         15.91489         1.98210        -0.34684
C         15.89900         3.39822        -0.68850
C         17.13388         1.32664        -0.13810
C         17.19653         4.04966        -0.88491
C         15.92762         6.27043        -0.94196
C         15.95391         7.74461        -0.63197
C         17.20258         5.56590        -1.05757
C         17.22286         8.47176        -1.02836
C         16.01074        10.62764        -1.25215
C         15.98251        12.01779        -0.62542
C         17.27135         9.84666        -1.12313
C         17.21985        12.81976        -0.94961
C         15.95821        14.95128        -0.82899
C         15.95333        16.41834        -0.83645
C         17.18331        14.23815        -0.97077
C         17.20431        17.14714        -1.08297
C         16.01105        19.25442        -1.48732
C         17.18813        18.56644        -1.28663
C         18.40427         1.99896        -0.16548
C         18.43475         3.40493        -0.43516
C         19.62197         1.32450         0.03376
C         19.62790         4.14460        -0.32729
C         18.45969         6.27319        -0.76316
C         18.46632         7.70911        -1.05034
C         19.63033         5.59785        -0.46442
C         19.77722         8.49492        -0.77094
C         18.50122        10.59465        -1.04674
C         18.47402        12.07393        -1.39948
C         19.67901         9.95839        -0.69383
C         19.76490        12.80469        -0.98918
C         18.41081        15.00458        -0.94801
C         18.41739        16.41878        -0.94651
C         19.69790        14.28931        -0.81705
C         19.63508        17.16407        -0.72098
C         18.51052        19.30925        -1.43320
C         19.70762        18.55088        -0.89910
C         20.86061         2.02221         0.00144
C         20.84948         3.45487        -0.09568
C         22.10660         1.35054         0.05252
C         22.07821         4.18561        -0.02589
C         20.83832         6.34082        -0.12695
C         20.84944         7.74275        -0.11565
C         22.05865         5.60708         0.09546
C         21.93655         8.49440         0.52394
C         20.84456        10.68662        -0.23048
C         20.87875        12.09936        -0.30622
C         21.87514         9.98136         0.44201
C         22.00839        12.83074         0.16349
C         20.76380        14.96203        -0.01967
C         20.74914        16.48578        -0.04515
C         22.03795        14.27862         0.22726
C         22.03433        17.15606         0.12674
C         20.90580        19.23255        -0.61806
C         22.08224        18.57109        -0.16887
C         23.33119         2.05458        -0.05120
C         23.31717         3.49577        -0.07153
C         24.57663         1.39337        -0.11707
C         24.52906         4.23104        -0.23325
C         23.29340         6.30375         0.18786
C         23.31408         7.70630         0.63689
C         24.49328         5.64301        -0.13514
C         24.64263         8.38136         0.65510
C         22.85968        10.77178         1.04892
C         23.07005        12.12250         0.76874
C         24.76313         9.69765         1.17882
C         24.36920        12.77339         1.14769
C         23.14035        15.00063         0.69940
C         23.14480        16.43891         0.58445
C         24.38720        14.27944         1.11815
C         24.37261        17.20267         0.90205
C         23.30136        19.25915        -0.02219
C         24.46968        18.60674         0.43890
C         25.79328         2.10630        -0.27817
C         25.78014         3.53787        -0.39994
C         27.03234         1.42438        -0.30213
C         27.00059         4.24576        -0.61874
C         25.63108         6.48289        -0.65901
C         25.76896         7.80745         0.06580
C         26.95736         5.72565        -0.82564
C         27.00156         8.53928         0.07325
C         25.79830        10.56078         0.84841
C         25.65518        12.07107         0.65556
C         26.99941         9.92927         0.41723
C         26.95205        12.80012         0.96654
C         25.69873        14.96581         1.02643
C         25.70826        16.42867         1.10198
C         26.92831        14.26580         1.06025
C         26.95629        17.16069         0.88448
C         25.70189        19.25829         0.45548
C         26.93893        18.56729         0.65370
C         28.24951         2.12510        -0.39711
C         28.22312         3.55342        -0.57787
C         29.49256         1.43002        -0.34188
C         29.52734         4.24483        -0.68417
C         28.24890         6.50316        -0.73092
C         28.23975         7.90307        -0.23786
C         29.55180         5.75675        -0.69247
C         29.45023         8.57106         0.01404
C         28.21884        10.66491         0.52739
C         28.14007        12.08704         0.90343
C         29.42265         9.94388         0.41088
C         29.39260        12.78467         1.24863
C         28.14836        15.01591         1.10215
C         28.18798        16.44775         0.94032
C         29.40861        14.30017         1.35258
C         29.40936        17.18152         0.86507
C         28.16042        19.24339         0.44624
C         29.40054        18.56942         0.52350
C         30.73745         2.09599        -0.27248
C         30.76416         3.53778        -0.28641
C         31.96308         1.39685        -0.21191
C         31.94783         4.24075        -0.07657
C         30.76144         6.45256        -0.21912
C         30.72631         7.84222        -0.01007
C         31.96037         5.70140        -0.02479
C         31.96162         8.52262         0.20494
C         30.70537        10.59974         0.72309
C         30.68559        12.04595         1.05922
C         31.98778         9.93964         0.37464
C         31.90728        12.83309         0.72965
C         30.71669        15.00405         1.10594
C         30.71990        16.49360         0.89439
C         31.96256        14.19313         1.27947
C         31.95592        17.34175         0.91671
C         30.60403        19.25541         0.17319
C         31.88513        18.66573         0.30121
C         33.19004         2.08643        -0.08702
C         33.19039         3.51650         0.07801
C         34.43053         1.40205        -0.11662
C         34.40507         4.17345         0.34309
C         33.15438         6.37679         0.26609
C         33.18348         7.79394         0.27842
C         34.37598         5.63274         0.73897
C         34.42638         8.50454         0.40024
C         33.19411        10.62254         0.48944
C         33.20157        12.10274         0.53915
C         34.43808         9.91381         0.46311
C         34.45016        12.82084         0.83157
C         33.18967        14.72718         1.53587
C         33.16547        16.91749         1.38371
C         34.47024        14.18280         1.13812
C         34.50784        17.40907         1.00046
C         33.07236        19.33785        -0.00598
C         34.40335        18.78487         0.26872
C         35.65630         2.04032         0.11938
C         35.63460         3.46228         0.42824
C         36.86838         1.27021        -0.12696
C         36.84114         4.23216         0.59554
C         35.65510         6.37821         0.43897
C         35.67200         7.79160         0.40756
C         36.86377         5.67461         0.42221
C         36.91160         8.49967         0.40387
C         35.68292        10.60901         0.58856
C         35.67067        12.03956         0.90895
C         36.91051         9.92982         0.51551
C         36.96860        12.85143         0.79965
C         35.66733        15.01826         0.91029
C         35.65559        16.48499         0.72061
C         36.83713        14.30059         0.57820
C         36.81654        17.13524         0.20621
C         35.57262        19.19500        -0.47054
C         36.78029        18.51268        -0.29291
C         38.08245         1.54074         0.46515
C         38.06209         3.63227         0.91908
C         39.43044         1.15563         0.12886
C         39.32169         4.18242         0.59157
C         38.10221         6.37407         0.33431
C         38.14353         7.78286         0.34809
C         39.34453         5.59610         0.19697
C         39.41159         8.50153         0.38304
C         38.16283        10.65646         0.50094
C         38.17777        12.07170         0.45329
C         39.40459         9.93482         0.43627
C         39.38993        12.76385         0.24201
C         37.98236        14.96327        -0.03746
C         38.03220        16.42081        -0.05268
C         39.34154        14.17425        -0.15875
C         39.23080        17.05211        -0.45980
C         37.96969        19.12282        -0.76943
C         39.20351        18.45776        -0.77413
C         40.51318         1.98123         0.35366
C         40.50538         3.41121         0.55757
C         41.75663         4.13209         0.62399
C         40.69110         6.32979         0.23334
C         40.64670         7.80717         0.40428
C         41.83877         5.49644         0.62132
C         41.84702         8.53834         0.52533
C         40.63985        10.65525         0.46478
C         40.63398        12.09901         0.34303
C         41.84765         9.92359         0.54321
C         41.81546        12.89394         0.29468
C         40.57008        14.95453        -0.18439
C         40.49403        16.35440        -0.51006
C         41.77370        14.26878         0.09358
C         41.65703        17.07964        -0.84758
C         40.40182        19.12884        -1.13911
C         41.60695        18.44266        -1.16439
O          6.05880        14.86751        -1.61846
O         38.43893        14.37552        -1.29953
O         13.76104        14.62448         0.31675
O         19.41673         8.02609        -2.10805
O         10.33700        10.52423         0.49158
O         17.31557         4.67186        -2.21581
O         15.39891        10.41910        -2.53402
O         36.45487        12.40102         2.09712
O         27.60733         6.25346        -2.03200
O         30.84197        11.07210         2.13993
O         33.21613        15.88088         2.31245
O         23.72466        10.17687         1.96744
O         34.80268        18.63335         1.70897
O         20.24480        13.70352        -2.06568
O          4.84110        12.65953        -1.35512
O         15.17190        17.09248         0.27454
O         12.43002        13.44404        -2.78927
O          4.76854        16.02318         3.69452
O         29.37087        13.46778         2.55071
O          8.49982        11.01245        -2.54558
O         24.33181        13.48410         2.39555
O         24.89697        16.96473         2.22550
O         40.08750         5.88731        -1.03056
O         29.76131         5.00561        -1.92898
O         32.43767        12.66958        -0.62134
O         38.02760         2.40546         1.58738
O         10.13694        16.90272        -2.80636
O         30.75912        15.53615        -0.27505
O         20.28204        15.70669         1.12572
O         22.43302         7.93552         1.76900
O         25.48106        12.19232        -0.80348
H         26.24988        11.76728        -1.24072
O         18.43332        20.60874        -0.84327
H         18.30086        20.49946         0.12068
O         15.94979         7.84015         0.85399
H         15.09689         7.47150         1.17090
O         25.16483         6.84416        -1.99706
H         25.97033         6.89511        -2.56740
O          7.00089        16.55805         2.53693
H          6.62253        16.49871         3.44543
O         34.26471         5.63959         2.21313
H         35.01790         5.11713         2.56308
O         14.75165        18.19374        -3.19964
H         14.58831        19.01767        -3.70504
O         13.31136         3.13557        -2.47854
H         14.15600         2.73904        -2.78171
O         18.40742        12.08506        -2.85378
H         18.98266        12.82873        -3.15611
O         15.99797        11.74863         0.82213
H         15.88538        12.60451         1.28884
H          0.26922         1.58448         0.82613
H          0.24479         4.04657         0.80666
H          2.40938         0.32727         0.60072
H          0.29181         5.96022         1.00370
H          0.37122         8.39107         1.20413
H          0.84600        10.02004         2.25425
H          1.16126        12.31568         3.03345
H          1.24047        14.30552         3.27521
H          1.55939        16.67197         3.80834
H          2.98329        18.79342         3.71582
H          4.85331         0.32329         0.35188
H          4.66089        20.03635         2.44050
H          7.30758         0.30725         0.15395
H          6.51415        20.12828         0.86832
H          9.75889         0.28817         0.03233
H          8.71065        20.22537        -0.10204
H         12.20644         0.28463         0.11670
H         11.01975        20.30708        -0.89103
H         14.65297         0.26968         0.13595
H         13.44370        20.37575        -1.43822
H         17.12122         0.25186         0.09793
H         16.05687        20.34027        -1.66643
H         19.62254         0.23384         0.17584
H         18.67348        19.47473        -2.53622
H         22.12323         0.25197         0.10916
H         20.94087        20.32017        -0.77734
H         24.60929         0.29543        -0.05540
H         23.35853        20.32381        -0.29151
H         27.04608         0.32946        -0.19970
H         25.74370        20.31802         0.16380
H         29.47498         0.33103        -0.29812
H         28.14294        20.31143         0.18395
H         31.96333         0.29861        -0.27377
H         30.52930        20.29684        -0.17247
H         34.42629         0.32122        -0.32311
H         33.02254        20.29237        -0.55035
H         36.80223         0.46547        -0.87503
H         35.53650        20.09199        -1.10536
H         39.60776         0.16545        -0.31870
H         37.92086        20.16737        -1.11052
H         41.50922         1.55319         0.15233
H         42.67042         3.54381         0.79994
H         42.79660         5.97959         0.86344
H         42.80679         8.00451         0.55635
H         42.80915        10.45194         0.59088
H         42.79598        12.41916         0.43396
H         42.72173        14.82464         0.10366
H         42.62484        16.56221        -0.89385
H         40.36228        20.19798        -1.39135
H         42.53234        18.96648        -1.44144
