         344
 CSIRO Nanostructure Databank - Neutral Graphene Oxide Data Set
C          1.31138         3.42519         0.54577
C          0.12137         4.08280         0.38248
C          1.25971         6.25495         0.17807
C          0.08086         5.47396         0.11273
C          1.17697         7.74322        -0.11888
C          0.00360         8.48800         0.46589
C          1.20263        10.61065         0.16940
C          0.00753         9.84259         0.48289
C          1.18664        12.06013         0.01280
C          0.05049        12.81669         0.23963
C          1.06312        14.86939        -0.61230
C          0.02287        14.22713        -0.00566
C          1.00540        16.29892        -0.99423
C         -0.20473        17.11487        -0.70502
C          1.25876        19.00983        -0.02398
C         -0.09979        18.38345        -0.28738
C          1.23392        20.52579         0.09618
C          0.10167        21.19115         0.57138
C          1.22411        23.33911         0.35833
C          0.09227        22.58310         0.67926
C          1.13514        24.82195         0.34429
C          0.09199        25.52892         1.10479
C          1.33589        27.63943         0.96680
C          0.16404        26.86548         1.32265
C          1.37989        29.05382         1.30340
C          3.76381         3.61149         1.19011
C          2.61526         4.12905         0.30854
C          3.72077         6.42479         0.70729
C          2.48782         5.63170         0.36286
C          3.68727         7.83925         0.19397
C          2.46328         8.50197         0.12489
C          3.69687        10.70316         0.24279
C          2.41547         9.92677         0.06590
C          3.62548        12.08248        -0.36493
C          2.40358        12.72685        -0.43777
C          3.55634        14.91864        -0.94692
C          2.28271        14.09911        -1.07949
C          3.56593        16.29522        -0.99594
C          2.29152        17.03909        -1.21183
C          3.59358        19.22417        -0.90393
C          2.24142        18.57548        -1.13739
C          3.63530        20.54559        -0.51558
C          2.41522        21.26431        -0.16885
C          3.66229        23.44145        -0.22689
C          2.42991        22.68613        -0.02548
C          3.67325        24.86577        -0.15913
C          2.40055        25.60686         0.02202
C          3.67740        27.81237         0.08100
C          2.45038        27.01660         0.44389
C          3.77203        29.12803         0.81833
C          2.54097        29.76005         1.23624
C          6.24744         3.59817         0.75451
C          5.06048         4.29351         0.81002
C          6.17370         6.34428         0.06507
C          5.01404         5.68491         0.45755
C          6.12480         7.74983        -0.48272
C          4.90553         8.53627        -0.06307
C          6.13128        10.63748        -0.42114
C          4.91749         9.92421        -0.18084
C          6.10110        12.05912        -0.60738
C          4.85987        12.72742        -0.71577
C          6.12477        14.90270        -1.04226
C          4.82145        14.15016        -1.06884
C          6.07265        16.34320        -0.60893
C          4.79994        17.06657        -0.98514
C          6.07793        19.19916        -1.36091
C          4.80388        18.44650        -1.04202
C          6.13521        20.59348        -0.80496
C          4.93811        21.22544        -0.15876
C          6.11796        23.41339        -0.44815
C          4.90809        22.73308        -0.34916
C          6.15358        24.91390        -0.58499
C          4.88358        25.59888        -0.15330
C          6.17549        27.63319         0.34782
C          4.94434        26.99014         0.12171
C          6.22544        29.01548         0.76362
C          4.98768        29.72332         1.00683
C          8.67524         3.56147         0.29327
C          7.47621         4.24919         0.37555
C          8.64156         6.38954        -0.09975
C          7.42480         5.66338         0.05484
C          8.61763         7.83392        -0.14967
C          7.40201         8.52230        -0.26778
C          8.61096        10.66493        -0.33797
C          7.37769         9.93682        -0.37207
C          8.60708        12.09385        -0.49652
C          7.36075        12.78273        -0.65328
C          8.59512        14.92352        -0.72685
C          7.37326        14.18118        -0.74939
C          8.58339        16.32426        -0.87965
C          7.35689        17.07245        -0.92424
C          8.62356        19.20662        -0.87123
C          7.34371        18.43869        -1.05235
C          8.53846        20.64615        -1.25891
C          7.33371        21.30284        -0.94228
C          8.59805        23.35900        -0.44931
C          7.36647        22.72835        -0.63059
C          8.59442        24.66888         0.29086
C          7.39377        25.52588         0.00351
C          8.66093        27.52074         0.66020
C          7.41091        26.86906         0.34084
C          8.68137        28.90941         0.97049
C          7.43971        29.62094         1.05483
C         11.18487         3.55527         0.00409
C          9.88206         4.22338        -0.31700
C         11.09452         6.42734         0.04953
C          9.88647         5.71365        -0.07427
C         11.09571         7.85953         0.08572
C          9.84587         8.56636        -0.05023
C         11.04422        10.77993         0.22054
C          9.81999         9.96884        -0.11694
C         11.12634        12.04314        -0.62618
C          9.83051        12.81886        -0.55557
C         11.10495        14.94674        -0.69880
C          9.84795        14.21206        -0.67933
C         11.12365        16.32056        -0.94926
C          9.84594        17.00022        -1.23211
C         11.11068        19.23773        -1.35425
C          9.83735        18.48186        -1.39892
C         11.06449        20.60373        -1.44796
C          9.78612        21.42420        -1.57774
C         11.05842        23.35391        -0.49591
C          9.84520        22.72344        -0.76210
C         11.09809        24.72111         0.01131
C          9.89150        25.42004         0.22255
C         11.13842        27.48248         0.68989
C          9.89598        26.80138         0.53560
C         11.14302        28.87460         1.06793
C          9.91144        29.55826         1.20356
C         13.62487         3.56220         0.19087
C         12.36932         4.25486         0.09677
C         13.53716         6.42999         0.23256
C         12.35330         5.72230         0.11878
C         13.56204         7.87474         0.30282
C         12.31422         8.57940         0.18874
C         13.52921        10.71929         0.26398
C         12.33796        10.00655         0.17920
C         13.52243        12.17302         0.13926
C         12.34918        12.85069        -0.24926
C         13.54319        14.99571        -0.23094
C         12.33872        14.25362        -0.39975
C         13.54409        16.41903        -0.48893
C         12.33867        17.08761        -0.87452
C         13.57912        19.20928        -1.14579
C         12.35874        18.49613        -1.16120
C         13.59778        20.59764        -1.81085
C         12.31914        21.37454        -1.54159
C         13.62740        23.32988        -0.55142
C         12.33587        22.76570        -0.97507
C         13.63564        24.62901         0.22441
C         12.33362        25.39954         0.18141
C         13.62101        27.46819         0.71655
C         12.35710        26.77135         0.51982
C         13.60889        28.85019         1.14110
C         12.37266        29.52294         1.30311
C         16.10148         3.58996         0.26206
C         14.85107         4.23745         0.17219
C         16.07539         6.46689         0.38958
C         14.81964         5.71306         0.09890
C         15.95001         7.82473         1.03363
C         14.75003         8.58582         0.53074
C         15.94033        10.73708         0.82881
C         14.77807        10.02551         0.53009
C         15.92430        12.24156         0.98183
C         14.71044        12.91308         0.37164
C         15.98619        15.04116         0.38903
C         14.72004        14.29990         0.17154
C         15.99802        16.52696         0.10812
C         14.73736        17.17483        -0.36665
C         16.04804        19.20404        -0.35930
C         14.74280        18.54589        -0.69796
C         16.07431        20.92483        -1.99990
C         14.84928        21.42557        -1.55381
C         16.10168        23.37532        -0.58325
C         14.81972        22.69807        -0.86590
C         16.08714        24.68988        -0.12886
C         14.80752        25.49179        -0.23525
C         16.07501        27.49357         0.71080
C         14.83589        26.82621         0.47375
C         16.06705        28.86808         1.14643
C         14.82956        29.52354         1.33689
C         18.58404         3.63702         0.51873
C         17.32646         4.30158         0.43809
C         18.49452         6.44109         0.85966
C         17.31899         5.71446         0.61218
C         18.43314         7.89347         1.03922
C         17.25313         8.57414         1.00981
C         18.45664        10.75804         0.89543
C         17.18895        10.04801         1.33774
C         18.42764        12.15698         0.60029
C         17.23618        12.89307         0.55962
C         18.48247        14.97069         0.02386
C         17.25928        14.28992         0.31733
C         18.47446        16.37344        -0.35399
C         17.29244        17.10490        -0.31329
C         18.54062        19.15335        -1.35286
C         17.25288        18.44624        -0.89753
C         18.52432        20.64217        -1.44991
C         17.36288        21.40956        -1.49555
C         18.58583        23.34944        -0.58769
C         17.35972        22.72526        -0.86995
C         18.64049        24.62899         0.12924
C         17.28708        25.34678         0.36442
C         18.53938        27.47620         0.77784
C         17.30819        26.81030         0.57412
C         18.52274        28.85927         1.18086
C         17.29859        29.52055         1.37507
C         19.75455         4.35614         0.70142
C         20.96399         6.53427         0.95950
C         19.73846         5.76290         0.86308
C         20.95951         7.87272         1.13840
C         19.69672         8.64899         1.40265
C         20.79058        10.65774         0.16648
C         19.64636        10.04319         0.80165
C         20.82952        11.99598        -0.04164
C         19.76634        12.86284         0.58657
C         20.91347        14.96411        -0.19479
C         19.71360        14.27898         0.07495
C         20.92649        16.30535        -0.54370
C         19.72495        17.05498        -0.65633
C         20.93985        19.23044        -0.68824
C         19.76460        18.44561        -0.95729
C         20.98184        20.57550        -0.86258
C         19.86310        21.35093        -1.50932
C         20.96911        23.56151        -1.02624
C         19.82171        22.78600        -1.02873
C         20.96015        24.91081        -0.58004
C         19.84880        25.45853         0.03643
C         20.98352        27.53954         0.78100
C         19.80713        26.82438         0.55258
C         20.95771        28.88398         1.21167
C         19.75990        29.53886         1.39882
O         16.16905        19.97545         0.58173
O         17.67606        18.43117        -2.29059
O         15.62018         6.33396        -0.99091
O          1.37793        25.35483        -1.00472
O         12.25345        22.51533        -2.47547
O         15.93418        16.02424         1.49133
O          9.70689        17.65984        -2.58514
O          1.53486        16.53034        -2.37482
O         17.98501        24.62296         1.43218
O          5.54063        14.54051        -2.31842
O         15.83762        12.49849         2.44148
H         15.89981        13.47085         2.57265
O          3.44130         3.88078         2.56835
H          4.17292         3.54340         3.12517
O         17.12372        10.11741         2.81678
H         16.77251        11.02175         3.03296
O         19.66792         8.85301         2.85424
H         18.79580         9.26616         3.07609
O          9.70642         4.05308        -1.78469
H          8.87572         4.51622        -2.02871
O          3.50280        28.15986        -1.34105
H          2.61828        28.57327        -1.43387
O          9.68224        21.83741        -2.97129
H         10.51161        22.33764        -3.17133
O         13.52225        20.28164        -3.24777
H         13.19961        21.10212        -3.68750
O          5.10985        21.00558         1.29848
H          4.35832        21.45092         1.74552
O          2.09769        13.84700        -2.50916
H          1.95857        14.73104        -2.92789
O         14.58314        25.78541        -1.64445
H         15.27050        26.41723        -1.94091
O         11.30025        11.62060        -2.00757
H         11.30684        12.42066        -2.57340
O          3.65435         6.59824         2.17715
H          3.50163         5.69432         2.55981
O          6.06173        19.35469        -2.82550
H          6.19994        18.46976        -3.22572
O          0.98264         7.78927        -1.58154
H          0.91738         8.73475        -1.83638
O         20.18309        21.40950        -2.94604
H         20.13254        20.49473        -3.29684
O         10.86920        11.22765         1.59883
H         10.83080        10.43460         2.17314
O         15.68821         7.57431         2.45864
H         15.95653         8.39144         2.94244
O          6.25429        25.16990        -2.04255
H          5.37218        24.98941        -2.43317
O          8.87008        19.24606         0.59356
H          8.15220        19.77854         1.00178
O          3.03609         3.78526        -1.06155
H          2.37512         4.16896        -1.67673
O         16.10907        20.04438        -3.01022
H         15.18443        19.88894        -3.34362
O          1.73866        19.08796        -2.38322
H          1.42592        18.31565        -2.91150
O          6.03423        16.25810         0.85667
H          6.05242        17.17042         1.21618
O          8.44192        24.28360         1.72361
H          8.52917        25.10551         2.25335
O         13.87185        24.32235         1.62869
H         13.17905        23.69938         1.93100
O          1.77293        18.46544         1.22099
H          1.19852        18.77562         1.95151
O          6.00135         7.57996        -1.94304
H          6.02178         8.47470        -2.34482
O         20.15462        12.98935         2.01094
H         20.20519        12.07808         2.37380
O          3.83781        10.90741         1.69573
H          3.85787        10.01844         2.11138
H          1.33039         2.34061         0.72770
H         -0.82623         3.52937         0.45969
H         -0.88595         5.95588        -0.08493
H         -0.90462         7.93677         0.75064
H         -0.89588        10.37971         0.80691
H         -0.86433        12.34803         0.62620
H         -0.88437        14.78522         0.27079
H         -1.19372        16.66402        -0.88216
H         -1.01717        18.96655        -0.11796
H         -0.80809        20.63711         0.84000
H         -0.83454        23.08013         0.99424
H         -0.75546        24.96132         1.51435
H         -0.64498        27.37740         1.86454
H          0.45811        29.52971         1.66791
H          3.86568         2.49979         1.05295
H          2.57572        30.80800         1.57031
H          6.26803         2.52067         0.98045
H          5.04398        30.72697         1.45720
H          8.70359         2.48062         0.49883
H          7.45683        30.67576         1.36776
H         11.20720         2.45438        -0.00043
H          9.91615        30.62520         1.47107
H         13.61285         2.46257         0.23996
H         12.37464        30.58036         1.60725
H         16.13115         2.48961         0.24811
H         14.82091        30.58072         1.64120
H         18.62258         2.54418         0.40256
H         17.29843        30.56582         1.71841
H         20.72048         3.83025         0.71837
H         21.91856         5.99525         0.85705
H         21.91576         8.40867         1.23195
H         21.61137        10.01527        -0.18515
H         21.69398        12.45348        -0.54318
H         21.87097        14.43142        -0.11488
H         21.88936        16.78479        -0.76590
H         21.81683        18.72761        -0.25551
H         21.89911        21.12228        -0.59936
H         21.90839        23.14590        -1.41653
H         21.87884        25.50317        -0.69471
H         21.95756        27.05310         0.63311
H         21.90722        29.40883         1.38702
H         19.74112        30.59097         1.71739
