         651
 CSIRO Nanostructure Databank - Neutral Graphene Oxide Data Set
C          5.78789        31.80421        -0.33935
C          5.80029        33.16182        -0.44371
C          8.21722        27.52977        -0.13245
C          8.21842        28.88633        -0.43530
C          7.02814        29.68481        -0.26485
C          8.12977        31.69673        -1.27735
C          6.97515        31.01930        -0.57652
C          8.22038        33.18347        -1.00778
C          7.02798        33.89564        -0.70058
C          8.27872        36.00641        -0.68171
C          7.05939        35.28756        -0.57433
C          8.31419        37.40122        -0.48226
C         10.73934        23.31285         0.65993
C         10.66369        24.64654         0.28929
C          9.43280        25.37702         0.13785
C         10.59123        27.35781        -0.82344
C          9.39162        26.71840        -0.23406
C         10.60645        28.80784        -1.02609
C          9.44801        29.56103        -0.84097
C         10.62894        31.70208        -1.24620
C          9.44015        30.98397        -1.06604
C         10.65243        33.11616        -1.38310
C          9.44714        33.86880        -1.17364
C         10.72163        36.01009        -0.95939
C          9.49835        35.29820        -0.96857
C         10.76916        37.39543        -0.66409
C          9.53271        38.11158        -0.46929
C         10.78326        40.21404        -0.19684
C          9.56371        39.51095        -0.27467
C         10.79426        41.60690         0.02050
C         13.31510        19.16806         1.67493
C         13.25449        20.52429         1.35684
C         12.04756        21.24380         1.21363
C         13.20672        23.35338         0.77779
C         11.99929        22.63558         0.87389
C         13.24797        24.79527         0.54317
C         11.91434        25.44249         0.21649
C         13.21347        27.36049        -0.80515
C         11.93376        26.64543        -0.64911
C         13.19074        28.73844        -1.33977
C         11.86661        29.47215        -1.40839
C         13.19596        31.67508        -1.36391
C         11.90938        30.95610        -1.20207
C         13.20366        33.11917        -1.56442
C         11.92636        33.81858        -1.61796
C         13.26637        35.99379        -1.06743
C         11.96712        35.34718        -1.38079
C         13.25776        37.38147        -0.73310
C         12.01852        38.09472        -0.58675
C         13.26568        40.18601        -0.13010
C         12.03400        39.49140        -0.31084
C         13.26514        41.58502         0.18697
C         12.00252        42.31238         0.26176
C         13.19647        44.33176         1.17962
C         11.98527        43.65440         0.62985
C         13.19706        45.78060         0.84251
C         15.78879        14.96866         1.64447
C         15.82107        16.31307         2.30266
C         14.56894        17.08051         2.01827
C         15.82034        19.15707         1.71200
C         14.56658        18.45220         1.78925
C         15.78084        20.66513         1.73309
C         14.55645        21.19192         0.97570
C         15.77339        23.43553         0.78326
C         14.48119        22.70031         1.06463
C         15.71405        24.74125         0.09552
C         14.49588        25.41147         0.02062
C         15.66130        27.29624        -1.15083
C         14.41790        26.71928        -0.57514
C         15.67343        28.72088        -1.59825
C         14.48379        29.53546        -1.13078
C         15.72029        31.70554        -1.62968
C         14.43043        30.91699        -1.82498
C         15.70583        33.05339        -1.45604
C         14.43721        33.77208        -1.01496
C         15.72135        35.94185        -0.92744
C         14.46682        35.27579        -1.11092
C         15.71177        37.35006        -0.68152
C         14.50215        38.05676        -0.54363
C         15.72569        40.13847         0.02971
C         14.50481        39.47308        -0.22478
C         15.73112        41.55769         0.32092
C         14.47424        42.27901         0.39436
C         15.67996        44.38322         0.84768
C         14.48633        43.66354         0.77054
C         15.70825        45.79667         1.03098
C         14.41670        46.55929         1.25798
C         15.63180        48.70393         0.68881
C         14.44973        48.00842         0.85645
C         15.69279        50.12464         0.55180
C         18.08495        10.75059         0.37643
C         17.73186        11.89734         1.10502
C         16.83944        12.93053         0.82822
C         18.24515        14.85487         1.73639
C         16.94428        14.22753         1.47072
C         18.28360        16.31673         1.76636
C         17.07987        17.04290         1.90755
C         18.29027        19.18373         1.63425
C         17.05685        18.46809         1.76920
C         18.29175        20.58744         1.30357
C         17.04033        21.31938         1.19769
C         18.20823        23.29156         0.28464
C         17.01538        22.62594         0.73865
C         18.16686        24.55135        -0.30152
C         16.94090        25.30570        -0.42999
C         18.15999        27.31987        -1.26312
C         16.94901        26.61017        -0.95397
C         18.22665        28.70457        -1.50583
C         16.97647        29.44516        -1.78998
C         18.28878        31.61980        -1.56363
C         16.99480        30.95572        -1.84673
C         18.29960        33.09207        -1.57226
C         16.95734        33.84022        -1.53747
C         18.22668        35.84354        -0.70097
C         16.94621        35.22900        -1.07387
C         18.21690        37.30224        -0.35837
C         17.00625        38.11065        -0.77522
C         18.18554        40.06017         0.23678
C         16.97255        39.45500        -0.09722
C         18.14978        41.43552         0.79154
C         16.92138        42.21184         0.57517
C         18.13094        44.32867         1.32260
C         16.99617        43.71237         0.49895
C         18.19001        45.81168         1.04268
C         16.92743        46.48878         0.97303
C         18.19277        48.68666         0.71021
C         16.89620        47.93039         0.63992
C         18.12962        50.15556         0.75874
C         16.91537        50.85340         0.58227
C         18.12531        53.04984         0.54681
C         16.94677        52.30262         0.51035
C         18.17198        54.47238         0.34420
C         20.51839         6.76744        -0.90071
C         20.53713         8.01462        -0.25171
C         19.34375         8.75635        -0.04678
C         20.56766        10.60658         1.03025
C         19.32598        10.04458         0.53115
C         20.71046        11.95038         1.43018
C         19.55786        12.74304         1.78227
C         20.76483        14.82286         1.35644
C         19.46268        14.14168         1.68822
C         20.77141        16.29952         1.67457
C         19.52532        17.02038         1.66715
C         20.75653        19.17498         1.63436
C         19.54551        18.47400         1.66727
C         20.79239        20.68972         1.60702
C         19.49465        21.25511         1.09208
C         20.78330        23.25032         0.16182
C         19.49477        22.64583         0.62922
C         20.70261        24.41579        -0.77496
C         19.38042        25.09337        -0.96654
C         20.71380        27.27709        -1.48514
C         19.38878        26.52621        -1.40619
C         20.69326        28.74673        -1.36374
C         19.47529        29.43336        -1.47028
C         20.72946        31.62782        -1.28419
C         19.47057        30.90210        -1.43579
C         20.74412        33.02490        -1.16105
C         19.54316        33.79087        -1.18633
C         20.74648        35.92240        -0.75679
C         19.52836        35.17118        -0.91787
C         20.72253        37.32277        -0.51736
C         19.50386        38.03768        -0.31714
C         20.68926        40.18358         0.11480
C         19.43682        39.39396         0.02198
C         20.71028        41.41100         0.97105
C         19.42217        42.15477         1.16401
C         20.66094        44.32093         1.18028
C         19.46979        43.63514         1.16131
C         20.67520        45.77906         1.13375
C         19.41663        46.47307         1.05098
C         20.66030        48.61119         0.55320
C         19.42086        47.96739         1.24830
C         20.66023        50.11575         0.84763
C         19.38647        50.89167         0.84685
C         20.59097        53.02707         0.54115
C         19.40295        52.35127         0.62298
C         20.60516        54.48447         0.92815
C         19.36689        55.20189         0.39838
C         20.61175        57.33644         0.05306
C         19.41549        56.58624         0.10513
C         20.65263        58.69444        -0.31138
C         22.75380         4.33811        -2.58622
C         21.61432         4.91001        -2.04294
C         22.98652         6.67114        -0.94380
C         21.70901         6.10574        -1.27309
C         22.97884         7.85386        -0.11165
C         21.79025         8.54927         0.16780
C         23.13952        10.50147         1.08287
C         21.81311         9.73941         1.10366
C         23.19781        11.85181         1.52159
C         21.99126        12.58185         1.60539
C         23.24105        14.76530         2.07801
C         21.95377        14.03679         1.89669
C         23.25511        16.26044         1.96569
C         21.97230        16.96950         1.78455
C         23.31770        19.11876         1.70115
C         22.02026        18.41478         1.37443
C         23.29135        20.64409         1.25137
C         22.02742        21.23719         0.89764
C         23.23085        23.06865        -0.26467
C         22.04596        22.45911         0.19327
C         23.21376        24.39655        -0.89355
C         21.95636        25.19108        -0.92544
C         23.21434        27.30413        -1.10954
C         21.95389        26.53000        -1.17122
C         23.15340        28.74608        -1.37625
C         21.95978        29.44119        -1.30305
C         23.18130        31.54709        -0.90721
C         21.98405        30.90421        -1.21277
C         23.24580        32.97698        -0.72842
C         22.05704        33.77197        -1.22230
C         23.18331        35.81618        -0.34921
C         22.00762        35.19941        -0.71746
C         23.28666        37.27795        -0.37679
C         21.99498        38.07024        -0.54758
C         23.25703        40.16952         0.26836
C         21.99430        39.52562        -0.18102
C         23.26200        41.47644         0.68805
C         22.00348        42.12328         1.16313
C         23.21415        44.35929         1.13581
C         21.96794        43.60544         1.54807
C         23.17098        45.75203         1.15299
C         21.92047        46.47668         1.12763
C         23.12421        48.64240         0.86845
C         21.95180        47.91964         0.96148
C         23.15405        50.11542         0.75161
C         21.88974        50.82399         0.38746
C         23.13309        53.05754         0.23649
C         21.85491        52.31354         0.26977
C         23.16597        54.40978         0.30736
C         21.93641        55.19090         0.64070
C         23.11485        57.26944        -0.31651
C         21.90595        56.64238         0.30214
C         23.19336        58.77181        -0.18085
C         21.85859        59.43989        -0.45255
C         23.15651        61.49947        -0.78310
C         21.89844        60.79968        -0.71405
C         23.99158         4.95901        -2.40576
C         25.44423         6.72478        -1.63027
C         24.15556         6.10827        -1.58989
C         25.88005         7.65773        -0.66783
C         24.17483         8.38795         0.48780
C         25.69317        10.27858         1.08996
C         24.32117         9.73299         0.88851
C         25.86300        11.70675         1.66530
C         24.51267        12.46659         1.88982
C         25.76611        14.74533         1.67850
C         24.54959        14.01851         2.03748
C         25.72475        16.17241         1.17611
C         24.54659        16.96244         1.68810
C         25.79172        19.11172         1.38250
C         24.55297        18.42123         1.45749
C         25.80450        20.48298         1.07269
C         24.54424        21.07598         0.60177
C         25.81790        23.12132        -0.32332
C         24.52771        22.37225        -0.20071
C         25.80444        24.43647        -0.79039
C         24.53344        25.08455        -1.15902
C         25.78120        27.29764        -1.44097
C         24.52642        26.58453        -1.11347
C         25.72516        28.74984        -1.69800
C         24.40799        29.54481        -1.65604
C         25.70452        31.48868        -0.63342
C         24.42472        30.69976        -0.63507
C         25.62229        32.81669         0.08154
C         24.38707        33.60195        -0.29531
C         25.69114        35.76738         0.05985
C         24.36963        35.03648         0.17422
C         25.69913        37.18813         0.19832
C         24.50348        37.94098         0.11390
C         25.68586        40.07260         0.74056
C         24.55836        39.44915        -0.04966
C         25.73179        41.55226         0.80607
C         24.49770        42.23344         0.84448
C         25.70829        44.34815         1.02851
C         24.46034        43.64687         1.01704
C         25.72752        45.77677         0.98548
C         24.45332        46.49605         1.17645
C         25.64194        48.67338         0.45879
C         24.43732        47.99402         1.05092
C         25.70542        50.14430         0.39290
C         24.44082        50.87888         0.58518
C         25.65745        52.93527        -0.33663
C         24.36336        52.24880        -0.01398
C         25.63127        54.44168        -0.54608
C         24.49737        55.14317         0.25564
C         25.68548        57.29155        -0.42404
C         24.39843        56.52887        -0.35633
C         25.64891        58.64162        -0.66316
C         24.35197        59.34662        -1.02101
C         24.34710        60.84835        -0.86192
C         26.74613         8.72415        -0.78682
C         28.09846        10.58533         0.14035
C         26.90208         9.71760         0.28466
C         28.10009        11.91589         0.40138
C         26.78643        12.58771         0.76857
C         28.26712        14.70544         1.11570
C         26.99319        13.96759         1.39718
C         28.22644        16.19067         0.96202
C         27.01324        16.95271         1.36956
C         28.33051        19.05883         1.36624
C         27.02954        18.32294         1.38795
C         28.34886        20.54818         1.13769
C         27.02937        21.27576         0.92557
C         28.24884        23.36599         0.16255
C         27.02130        22.55504         0.18602
C         28.32026        24.63518        -0.57526
C         27.06504        25.11440        -1.28458
C         28.23698        27.35490        -1.39012
C         26.99406        26.63750        -1.35459
C         28.27928        28.74934        -1.31056
C         27.01372        29.51030        -1.48771
C         28.15867        31.54544        -0.69699
C         26.93390        30.91028        -0.97266
C         28.14910        32.85466        -0.02835
C         26.89475        33.62679        -0.02217
C         28.20172        35.73200         0.16111
C         26.91485        35.02264         0.05492
C         28.19354        37.18985         0.27492
C         26.97203        37.86481         0.35199
C         28.20060        40.05597         0.68552
C         26.99500        39.27744         0.76620
C         28.24598        41.45123         1.26752
C         26.95179        42.23324         1.01240
C         28.22087        44.38129         1.33573
C         26.93390        43.63243         1.08235
C         28.18974        45.84326         0.95533
C         26.93630        46.48763         0.85213
C         28.19330        48.65658         0.39656
C         26.92996        47.89797         0.40672
C         28.18892        50.07986        -0.05120
C         26.89247        50.81576         0.12535
C         28.12311        52.97654         0.10227
C         26.91665        52.23850        -0.02565
C         28.10622        54.38874         0.03968
C         26.93052        55.14770        -0.19395
C         26.90535        56.54079        -0.21097
C         29.31475        12.68415         0.19537
C         30.65274        14.76550         0.25114
C         29.41782        14.02120         0.46124
C         30.74516        16.11653         0.40408
C         29.50006        16.89246         0.64375
C         30.83401        19.05623         0.68285
C         29.59186        18.32774         1.04084
C         30.81752        20.40359         0.45531
C         29.47834        21.10331         0.25208
C         30.81873        23.26692        -0.10554
C         29.59184        22.62101         0.35078
C         30.80002        24.61090        -0.53567
C         29.52552        25.26028        -0.81429
C         30.78042        27.36539        -1.59386
C         29.48662        26.54101        -1.64906
C         30.75335        28.83144        -1.35282
C         29.50715        29.48164        -1.24956
C         30.68974        31.68555        -0.91391
C         29.41203        30.99693        -1.33707
C         30.69883        32.91993        -0.34093
C         29.45084        33.58422         0.13944
C         30.63296        35.78377         0.76427
C         29.40479        35.06178         0.22815
C         30.66468        37.25604         0.42054
C         29.43041        37.92489         0.30354
C         30.63999        40.12268         0.57948
C         29.40365        39.42142         0.05043
C         30.64093        41.60479         0.46628
C         29.45414        42.22793         0.78076
C         30.65550        44.46091         0.46124
C         29.36292        43.67386         0.64958
C         30.65793        45.89135         0.80726
C         29.39537        46.56794         0.85871
C         30.62215        48.76727         0.79675
C         29.37786        48.01368         0.69310
C         30.60110        50.13344         0.68210
C         29.39098        50.86720         0.37977
C         29.34505        52.24216         0.37935
C         31.99395        16.90532         0.03566
C         33.32106        19.04045         0.46767
C         32.09736        18.24285         0.82958
C         33.30372        20.39544         0.23634
C         32.04190        21.14324         0.23194
C         33.31784        23.29128         0.11534
C         32.03591        22.51359        -0.00914
C         33.27410        24.64431        -0.54536
C         32.05126        25.25878        -0.83342
C         33.30319        27.44862        -1.12275
C         32.07790        26.65291        -1.32069
C         33.26307        28.85291        -1.31128
C         31.99297        29.53759        -1.36545
C         33.27845        31.76091        -1.14174
C         31.94640        31.00739        -1.35008
C         33.22830        33.03804        -0.45781
C         31.96707        33.60572        -0.00904
C         33.20605        35.83209         0.33084
C         31.95804        35.04831         0.50723
C         33.16758        37.25308         0.38649
C         31.90828        37.92948         0.42052
C         33.18437        40.12904         0.44326
C         31.93331        39.38481         0.59920
C         33.16010        41.58225         0.03235
C         31.87861        42.32377         0.32942
C         33.14712        44.44393         0.59812
C         31.90977        43.70875         0.44040
C         33.09755        45.84149         0.78990
C         31.88440        46.56076         0.89634
C         31.90068        48.04895         1.19125
C         34.52172        21.10958        -0.07195
C         35.74958        23.20739        -0.46022
C         34.55558        22.48979        -0.21655
C         35.75514        24.61693        -0.59601
C         34.50671        25.33110        -0.70471
C         35.75789        27.44771        -0.99474
C         34.51934        26.74517        -0.94012
C         35.74422        28.84186        -1.21724
C         34.52158        29.56185        -1.31078
C         35.73378        31.67804        -0.97207
C         34.54774        30.99400        -1.16859
C         35.74815        33.01751        -0.36794
C         34.45780        33.69787        -0.01643
C         35.64005        35.91770         0.10963
C         34.43691        35.17625         0.14900
C         35.62960        37.31621         0.30700
C         34.39130        37.99462         0.41618
C         35.64094        40.18052         0.42776
C         34.37995        39.44403         0.42328
C         35.61544        41.58676         0.52472
C         34.41170        42.32629         0.45448
C         34.37287        43.71374         0.61440
C         36.97436        25.33893        -0.66918
C         38.23783        27.45326        -0.78509
C         37.00434        26.73145        -0.83152
C         38.28823        28.83402        -0.96424
C         37.03878        29.53454        -1.33282
C         38.27318        31.74411        -0.77941
C         37.03662        31.06058        -1.22225
C         38.25928        33.10835        -0.51849
C         36.97529        33.83439        -0.58871
C         38.19492        35.97573         0.05715
C         36.92590        35.28920        -0.27565
C         38.12684        37.34587         0.32947
C         36.88782        38.05354         0.35194
C         36.85554        39.45344         0.44304
C         39.48093        29.59031        -0.78464
C         40.69201        31.73125        -0.38675
C         39.49315        30.99303        -0.68301
C         40.67639        33.08776        -0.17405
C         39.45272        33.84032        -0.21230
C         39.40066        35.22822         0.04312
O         22.19259        56.22450         1.69216
O         11.18754        26.52831        -1.89057
O         18.07183        36.37042         0.73302
O         23.95699        27.04496         0.17238
O         12.51921        28.95544        -2.61060
O         21.78718        51.40810        -0.92612
O         26.09936        39.46258         1.96629
O         21.43382        41.26242         2.23411
O         31.62640        26.93898        -2.71783
O         19.92454        24.16952        -1.98286
O         23.38551        20.21077         2.62875
O         24.61085        47.40155         2.37122
O         28.52428        16.60562        -0.44416
O         26.08608        48.06258        -0.81684
O         24.57567        13.09320         3.19420
O         18.48314        12.06062         2.30879
O         29.15529        20.79290        -1.08208
O         29.22127        18.60165         2.44727
O         20.32180        23.56520         1.52229
O         20.57497        48.42467        -0.81381
O         20.17465        50.56970         2.13799
O         26.51761        29.22438        -2.84954
O         26.62335         9.32420         1.65762
O         20.04201        26.75887        -2.68398
O         11.86465        34.81263        -2.72752
O         28.01630        14.14194         2.45061
O         12.69742        31.29158         0.03924
O         37.15924        30.38825        -2.51296
O         21.31667        40.37189        -1.20120
O         32.59007        31.70438        -2.45548
O         17.69045        48.18727        -0.56990
O         28.87098        32.88071         1.29606
O         32.08976        33.94809         1.45250
O         28.36153        50.08147        -1.65334
O         23.83533        24.42607        -2.25355
O         27.83149        21.31948         2.21081
O         24.49581        21.07106        -0.87165
O         15.42936        27.69973        -2.58165
O         35.27203        33.00114         1.02809
O         18.61080        41.54018         2.21639
O         31.14191        39.71314         1.86813
O         12.53140        25.64841         1.52090
O         17.69625        33.65535        -2.80011
O         25.23741         7.51726         0.60193
O         22.84059        37.81116        -1.71547
O         17.00908        30.15103        -3.08724
O         23.82900        50.76184         1.90784
O         28.97848        23.33493         1.44098
O         24.85896        52.25097        -1.38548
O         23.54805        56.63931        -1.55914
O         22.39750        14.40006         3.22892
O         15.19220        23.39657         2.13651
O         24.12003        16.74940         3.07355
O         29.72898        44.17779        -0.65899
O         36.87629        34.79697        -1.68749
O         17.22609        38.36799        -2.20555
H         16.47387        38.90238        -2.53713
O         28.44305        48.74842        -2.13547
H         27.49589        48.44561        -2.14358
O         24.19397        30.14031        -2.95395
H         25.04216        30.07633        -3.45476
O         29.40487        39.66498        -1.39713
H         28.57073        39.31026        -1.77067
O         23.53084        59.02761         1.20889
H         22.82053        58.65137         1.77099
O         33.03760        48.67543         0.59363
H         32.92729        48.64726        -0.37889
O         25.54436        16.08778        -0.28639
H         26.38903        16.33885        -0.72468
O         22.13171        18.31724        -0.11732
H         21.32655        17.86408        -0.44899
O         29.27968        31.30105        -2.76985
H         28.61450        30.68808        -3.15262
O         15.62553        21.02277         3.13337
H         16.50607        20.99457         3.56165
O         13.12697        44.16874         2.70374
H         13.56274        43.31592         2.92225
O         25.45644        32.48727         1.51763
H         25.07954        33.29976         1.94274
O         26.51332        11.54508         2.92080
H         26.20020        12.26109         3.52250
O         28.34280        41.32134         2.71815
H         27.65064        40.68128         2.99844
O         14.39174        33.55931         0.45583
H         13.85108        32.75417         0.63351
O         24.30562        30.12856         0.69312
H         24.59464        30.82722         1.33366
O         20.87474        21.17624         2.99373
H         20.82017        22.16004         2.94514
O         24.94092        55.28047         1.62419
H         24.19889        55.68349         2.13128
O         26.04012        12.79944        -0.45792
H         26.55607        13.38781        -1.04857
O         19.49406        48.12562         2.67292
H         19.66891        49.08072         2.87822
O         17.29445        44.01440        -0.89715
H         16.51450        43.77607        -1.44047
O         29.32977        26.10781        -3.03747
H         30.23827        26.09333        -3.43211
O         33.23132        41.52046        -1.44316
H         33.13755        42.43735        -1.78013
O         33.43448        23.59674         1.55498
H         33.47352        22.74179         2.03475
O         27.14779        24.62470        -2.65378
H         27.94621        25.04412        -3.07087
O         14.78914        20.87477        -0.42745
H         13.94287        20.97012        -0.91248
O         21.75821         9.13288         2.45651
H         22.60001         8.65095         2.60752
O         32.20582        17.82707         2.22239
H         31.88646        18.55708         2.79343
O         31.95948        17.17281        -1.36834
H         31.13046        17.65113        -1.58137
O         25.41515        54.69041        -1.94483
H         24.96054        53.90035        -2.32050
O         20.91528        14.74987        -0.10216
H         20.13112        15.17335        -0.51121
O         14.22075        46.62769         2.72672
H         13.88803        45.73312         3.01556
O         28.50655        44.30988         2.76327
H         27.69285        44.54838         3.25459
O         20.44815        54.46399         2.37791
H         20.82331        55.31071         2.71381
O         14.73355        29.70495         0.28051
H         13.99000        30.24423         0.65271
O         24.85724        39.71441        -1.45157
H         24.16216        39.24166        -1.97476
O         24.13778        34.92514         1.64711
H         24.36873        35.79137         2.04893
O         17.74916        44.17674         2.71511
H         18.48511        44.50348         3.27409
O         21.99299        43.66387         3.00389
H         21.57918        42.82721         3.32622
O         14.29220        30.74360        -3.24375
H         15.14006        30.37308        -3.59135
O         30.44099        35.76338         2.20794
H         30.66120        34.85215         2.51105
O         22.31581        33.92674        -2.66273
H         21.55020        34.39505        -3.05912
O         24.11110        59.10480        -2.42924
H         24.03221        58.12579        -2.54810
O         15.87865        16.09776         3.76911
H         15.97652        16.97716         4.19224
O          7.82700        31.57593        -2.71786
H          8.57423        31.97713        -3.21119
H          4.86865        31.28186        -0.03408
H          4.88692        33.74099        -0.24424
H          7.28738        27.06347         0.22746
H          6.13861        29.19632         0.16362
H          6.13447        35.83453        -0.33870
H          7.37371        37.94367        -0.30479
H          9.81274        22.72987         0.77065
H          8.49682        24.87694         0.43113
H          8.61722        40.05965        -0.16113
H          9.83803        42.14567         0.09392
H         12.38323        18.60658         1.84330
H         11.09730        20.71818         1.39403
H         11.02353        44.18656         0.68218
H         12.22720        46.30400         0.89407
H         14.82085        14.54003         1.34506
H         13.60977        16.54975         2.11957
H         13.50031        48.56345         0.91787
H         14.74635        50.68396         0.50220
H         17.37778        10.36352        -0.37261
H         16.03176        12.77939         0.09754
H         15.98687        52.82859         0.39324
H         17.23882        54.99674         0.08434
H         19.55200         6.32632        -1.18738
H         18.40087         8.33298        -0.42209
H         18.47345        57.09769        -0.14889
H         19.69920        59.20932        -0.50937
H         22.68133         3.42761        -3.19650
H         20.62222         4.47857        -2.23618
H         23.13212        62.59954        -0.77923
H         20.96358        61.36918        -0.82549
H         24.88040         4.54204        -2.90059
H         26.11745         6.44951        -2.45592
H         26.59361        59.20363        -0.74106
H         25.29108        61.40877        -0.93524
H         27.23599         8.92439        -1.74936
H         29.02790        10.09850        -0.19564
H         29.05146        54.92873         0.20720
H         27.84253        57.10180        -0.06800
H         30.18601        12.14192        -0.20388
H         31.54272        14.18876        -0.04519
H         31.52820        50.70198         0.85297
H         30.25889        52.81687         0.59476
H         32.90720        16.29314         0.23617
H         34.28409        18.50692         0.45075
H         34.04078        46.39868         0.89227
H         32.02723        48.16903         2.30619
H         35.44779        20.52769        -0.19806
H         36.70199        22.65970        -0.52929
H         36.56213        42.12520         0.68775
H         35.31080        44.25952         0.80118
H         37.92269        24.79050        -0.56697
H         39.16249        26.90199        -0.55668
H         39.05661        37.91017         0.49944
H         37.80554        40.00761         0.48509
H         40.42116        29.04256        -0.61758
H         41.64295        31.18142        -0.32886
H         41.61487        33.61738         0.04627
H         40.34147        35.75481         0.26625
