         235
 CSIRO Nanostructure Databank - Neutral Graphene Oxide Data Set
C        -10.88261         0.58616        -1.23532
C        -10.05107         1.47151        -0.34454
C         -8.84960         0.74957         0.29210
C         -7.56237         1.50303         0.44458
C         -6.30222         0.72504         0.72672
C         -5.01444         1.45577         0.90079
C         -3.73803         0.72056         0.78908
C         -2.54649         1.44711         1.23380
C         -1.22889         0.73409         1.20470
C         -0.09735         1.42617         1.89553
C          1.15395         0.67317         2.19402
C          2.33779         1.55415         2.32912
C          4.17080         0.40702         2.14737
C          5.40166         1.25119         1.91820
C          6.26211         0.67099         0.80404
C          7.25909         1.49195         0.15484
C          8.19780         0.96129        -0.70249
C          9.20799         1.79897        -1.33981
C         10.14891         1.15938        -2.24851
C         -9.68581         2.76922        -1.03647
C         -8.49288         3.42947        -0.93223
C         -7.37170         2.82682        -0.20392
C         -6.15085         3.44480        -0.17738
C         -5.04252         2.95490         0.71264
C         -3.79538         3.76706         1.01395
C         -2.55352         2.95736         1.36982
C         -1.20656         3.63344         1.24290
C          0.04665         2.89047         1.56767
C          1.38004         3.31070         0.91011
C          2.54348         2.73996         1.70381
C          3.84846         3.44181         1.68416
C          5.08669         2.76518         1.71089
C          6.31737         3.53672         1.42115
C          7.36871         2.91897         0.53270
C          8.08905         3.83929        -0.43553
C          9.22166         3.15477        -1.14515
C         -8.34105         4.80289        -1.39724
C         -7.11447         5.42285        -1.42939
C         -5.94497         4.50775        -1.21934
C         -4.74383         6.02956         0.25606
C         -3.58633         5.15631         0.47573
C         -2.34239         5.55815         0.03514
C         -1.11915         4.79082         0.30395
C          0.23716         5.47481         0.19860
C          1.40532         4.81997         0.82140
C          2.51976         5.53596         1.22391
C          3.75979         4.88094         1.54770
C          4.97765         5.71145         1.66157
C          6.29908         5.02766         1.50777
C          7.42306         5.81860         0.93345
C          8.40551         5.17545         0.16320
C         -6.94487         6.83043        -1.72954
C         -5.82687         7.59022        -1.41820
C         -4.69372         7.04778        -0.68808
C         -3.37060         7.57204        -1.10576
C         -2.14903         6.81273        -0.72445
C         -0.86848         7.54272        -0.59286
C          0.25038         6.92416        -0.10614
C          1.39509         7.75171         0.36714
C          2.45454         7.03190         1.19185
C          3.71060         7.75287         1.45722
C          4.93445         7.18270         1.45103
C          6.22560         7.99446         1.60786
C          7.40907         7.20423         1.08282
C         -5.63865         8.90125        -2.04600
C         -4.47204         9.58632        -2.00347
C         -3.31961         9.08488        -1.16262
C         -1.93615         9.60165        -1.47009
C         -0.81544         8.93300        -1.04620
C          0.50665         9.53793        -1.08543
C          1.57806         9.04515        -0.38679
C          2.88271         9.69275        -0.57359
C          3.87430         9.66823         0.35761
C          5.28600        10.02101         0.24091
C          6.26405         9.33168         0.86930
C        -10.84500        -0.76001        -1.17955
C         -9.86777        -1.50436        -0.41282
C         -8.85105        -0.79075         0.46065
C         -7.48624        -1.46575         0.27231
C         -6.22992        -0.64306         0.09035
C         -4.94387        -1.36349         0.39142
C         -3.72329        -0.68780         0.61144
C         -2.47916        -1.45625         0.81713
C         -1.19292        -0.74644         1.10182
C         -0.05929        -1.50802         1.83867
C          1.28433        -0.77196         1.83941
C          2.48887        -1.42517         1.55602
C          3.82285        -0.76254         1.52700
C          5.06254        -1.52598         1.06467
C          6.12613        -0.65535         0.43726
C          7.09338        -1.27869        -0.43303
C          8.36492        -0.53365        -0.75433
C          9.06224        -1.03001        -1.99632
C         10.03264        -0.14753        -2.60685
C         -9.83455        -2.87007        -0.46125
C         -8.67950        -3.61438         0.00255
C         -7.45007        -2.84045         0.18932
C         -6.19747        -3.57292         0.16458
C         -4.94908        -2.79102         0.08567
C         -3.63807        -3.52739         0.17790
C         -2.45960        -2.81916         0.71240
C         -1.32432        -3.66049         1.29236
C         -0.00046        -2.92859         1.35096
C          1.19751        -3.57457         1.12928
C          2.44691        -2.82852         1.14347
C          3.57908        -3.47900         0.58820
C          4.79529        -2.79312         0.31225
C          5.85621        -3.40944        -0.37276
C          7.00434        -2.61704        -0.77928
C          7.96359        -3.21272        -1.71716
C          8.88135        -2.31869        -2.40571
C         -8.64049        -4.98846         0.00735
C         -7.40947        -5.72215         0.22410
C         -6.16535        -4.95609         0.24036
C         -4.90132        -5.67718         0.26232
C         -3.71037        -4.99314         0.24713
C         -2.42106        -5.66932         0.05136
C         -1.19782        -4.97269         0.53934
C          0.03878        -5.75802         0.70550
C          1.22002        -5.02806         0.88350
C          2.43636        -5.68397         0.56088
C          3.51807        -4.86565         0.20766
C          4.59403        -5.45378        -0.53443
C          5.79531        -4.78662        -0.76257
C          7.14392        -5.45968        -1.04888
C          7.96421        -4.56157        -1.94802
C         -7.39399        -7.08819         0.33287
C         -6.14922        -7.87963         0.64082
C         -4.87600        -7.13709         0.29201
C         -3.71106        -7.82993         0.09901
C         -2.40930        -7.14978        -0.26292
C         -1.18648        -7.84753         0.29194
C          0.00098        -7.18284         0.51659
C          1.26255        -8.02336         0.77286
C          2.61152        -7.20136         0.58750
C          3.45248        -7.65095        -0.59718
C          4.31665        -6.73678        -1.12482
C          6.15324        -7.68784        -1.84473
C          7.18690        -6.94530        -1.38170
C         -6.15359        -9.26543         0.03189
C         -5.00576        -9.92601        -0.21482
C         -3.70375        -9.28490        -0.02005
C         -2.52981        -9.97798        -0.01042
C         -1.22822        -9.35766         0.43613
C          0.00421        -9.92546        -0.23210
C          1.19948        -9.28612        -0.11230
C          2.39381        -9.82738        -0.72311
C          3.49979        -9.05091        -0.99856
C          4.71299        -9.68194        -1.52341
C          5.93020        -9.13061        -1.80472
O          1.19907        -8.45954         2.10953
O         -1.56682        -4.89196        -0.88339
O         -0.30326         4.61587        -0.90099
O         -4.95195         4.47868        -1.93355
O         -0.52335        -1.59127         3.22932
H         -0.43291        -0.68410         3.62322
O          5.67951        -2.01020         2.31626
H          5.05187        -2.63641         2.73686
O          0.14816         1.00224         3.26460
O          3.40562        -7.44063         1.77007
H          2.78226        -7.92649         2.38805
O         -3.59428         9.50651         0.21761
H         -3.63512        10.48565         0.23272
O         -4.12023        -3.04155        -1.13017
O         -1.15275        -9.64369         1.86114
H         -0.26267        -9.28933         2.17554
O         -0.80987         0.10101        -0.04209
O          1.33407         7.71465         1.84448
O         -0.50415         3.84058         2.51493
O          5.01136        -6.99868        -2.31471
O          6.19136         1.17542         3.13174
H          5.61250         1.44427         3.87652
O          7.81739        -5.41817         0.25592
H          7.90674        -4.47969         0.52860
O          7.06078         4.10792        -1.47919
H          7.50995         4.55284        -2.22938
O          5.84972         5.43755         2.84227
O         -5.80016         0.92076         2.06193
O         -2.70978         2.13948         2.54226
O          3.55455         9.13025         1.61584
O          3.34995         0.99785         3.12059
O         -2.27053        -7.29452        -1.70939
H         -1.78350        -6.49623        -2.02186
O          9.28604        -0.84616         0.35367
H          8.86591        -0.53030         1.18324
O         -2.66935         6.81516        -2.12224
O         -1.72561        -3.99320         2.64810
H         -1.46870        -3.23118         3.22410
O          7.61106         3.05698         1.95042
O         -5.87560         5.84178         0.97392
H         -5.73488         5.11677         1.63934
O         -4.87714         3.66530         1.99576
O          6.45644         8.23506         3.01829
H          6.39208         7.35524         3.45906
O         -8.51540         1.42926         1.55457
O         -6.18100        -0.32905        -1.35492
H         -5.89364        -1.14140        -1.82742
O         -9.24820        -1.05560         1.82981
H         -8.85248        -0.34589         2.38621
O         -6.15454        -8.07145         2.09780
H         -5.37422        -8.62197         2.32275
O          1.45192         2.70644        -0.40023
H          0.83988         3.20710        -0.99581
O        -10.93680         1.88130         0.73635
H        -10.35556         2.12776         1.49271
H         10.69990        -0.56652        -3.37541
H         10.91407         1.79345        -2.72028
H          9.97912         3.77671        -1.64754
H          9.20042         5.78492        -0.29508
H          8.28620         7.76892         0.72803
H          7.28792         9.72712         0.75651
H          5.56028        10.89894        -0.36656
H          3.04978        10.20858        -1.53124
H          0.62624        10.47245        -1.65474
H         -1.83491        10.63565        -1.83845
H         -4.37849        10.55296        -2.52336
H         -6.47958         9.30146        -2.63433
H         -7.77275         7.32519        -2.26411
H         -9.25556         5.36345        -1.64620
H        -10.52285         3.28262        -1.53647
H        -11.62942         1.08679        -1.86920
H        -11.53833        -1.34695        -1.80244
H        -10.62647        -3.41933        -0.99443
H         -9.56356        -5.56130        -0.16947
H         -8.34826        -7.63815         0.30649
H         -7.12343        -9.76946        -0.09807
H         -5.02216       -10.96917        -0.56572
H         -2.54847       -11.07267        -0.13074
H         -0.07791       -10.85414        -0.81912
H          2.38139       -10.88647        -1.02728
H          4.65193       -10.78253        -1.57112
H          6.77788        -9.80489        -2.00483
H          8.07611        -7.46341        -0.99333
H          8.67825        -4.99717        -2.66297
H          9.46001        -2.71859        -3.25261
