         294
 CSIRO Nanostructure Databank - Neutral Graphene Oxide Data Set
C        -11.04605         0.55545         0.26505
C        -10.15843         1.30883        -0.70837
C         -8.83808         0.55051        -0.83837
C         -7.56755         1.30128        -1.07432
C         -6.29850         0.56327        -1.40361
C         -5.04307         1.36398        -1.30945
C         -3.75312         0.60863        -1.36017
C         -2.48994         1.38622        -1.24968
C         -1.17542         0.61296        -1.33459
C         -0.04396         1.45957        -0.70916
C          1.36771         0.71615        -0.60074
C          2.53880         1.32205        -1.41128
C          3.85974         0.60451        -1.31331
C          5.20528         1.28766        -1.67636
C          6.35149         0.92042        -0.70867
C          7.72084         1.32016        -1.36742
C          8.90460         0.83401        -0.50150
C         10.23485         1.43894        -1.08033
C         11.45571         0.65614        -0.64386
C         -9.87942         2.70445        -0.21849
C         -8.75380         3.43976        -0.60983
C         -7.72217         2.76085        -1.51718
C         -6.33762         3.53685        -1.68047
C         -5.06980         2.72127        -1.40261
C         -3.78023         3.48393        -1.49150
C         -2.49243         2.75183        -1.32522
C         -1.22971         3.49979        -1.47124
C         -0.04158         2.81342        -1.38593
C          1.24738         3.52007        -1.56275
C          2.53801         2.79855        -1.67323
C          3.84492         3.57090        -1.60631
C          5.15225         2.83716        -1.71626
C          6.45153         3.62579        -1.48679
C          7.81842         2.89266        -1.64309
C          8.97153         3.55423        -0.85164
C         10.13750         2.89735        -0.67063
C         -8.68378         4.79385        -0.30901
C         -7.59944         5.63920        -0.90406
C         -6.27251         4.83589        -0.83874
C         -5.08756         5.76034        -1.23157
C         -3.78313         4.98446        -1.41548
C         -2.51627         5.82773        -1.26404
C         -1.22302         5.00402        -1.41286
C          0.01729         5.57837        -0.78911
C          1.28154         4.79629        -0.80408
C          2.54774         5.50588        -0.49916
C          3.82454         5.07969        -1.22416
C          5.01756         5.44616        -0.28921
C          6.35967         4.98662        -0.85118
C          7.57699         5.61145        -0.26801
C          8.91220         5.06113        -0.73992
C         -7.46206         6.96621        -0.20119
C         -6.25812         7.54203         0.10842
C         -4.99098         6.89370        -0.21891
C         -3.79977         7.41237         0.23926
C         -2.51338         6.78307        -0.07171
C         -1.36772         7.24941         0.51021
C         -0.06081         6.52832         0.37184
C          1.21089         7.32860         0.56243
C          2.42461         6.86366         0.12103
C          3.68500         7.63053         0.31906
C          4.99756         6.95412         0.01424
C          6.26155         7.58830         0.62514
C          7.49949         6.73098         0.47850
C         -6.21336         8.82859         0.78404
C         -5.03964         9.36196         1.19810
C         -3.78818         8.64472         1.03148
C         -2.63259         9.11876         1.58232
C         -1.39643         8.27209         1.62215
C         -0.09899         9.04738         1.72795
C          1.10864         8.55995         1.33750
C          2.36470         9.14338         1.96151
C          3.71556         8.84655         1.27199
C          4.80227         8.63001         2.32364
C          5.96619         8.03501         2.03942
C        -11.01557        -0.77651         0.40556
C        -10.21486        -1.63841        -0.54365
C         -8.90172        -0.94582        -0.94089
C         -7.59070        -1.65329        -0.85953
C         -6.28682        -0.92835        -1.15723
C         -5.01261        -1.59554        -0.76597
C         -3.74369        -0.90059        -1.15127
C         -2.41994        -1.65017        -0.93125
C         -1.24699        -0.72942        -0.63470
C          0.02882        -1.40743        -0.29335
C          1.29402        -0.81460        -0.90373
C          2.60169        -1.45648        -0.37109
C          3.89936        -0.71840        -0.55885
C          5.13003        -1.09522         0.21574
C          6.32286        -0.50407        -0.12962
C          7.62101        -1.12203         0.26593
C          8.93662        -0.68823        -0.38806
C         10.15852        -1.18119         0.44834
C         11.42293        -0.58258        -0.13130
C        -10.01026        -3.07847        -0.10232
C         -8.81469        -3.68552         0.04587
C         -7.57797        -2.82487         0.08262
C         -6.25431        -3.51908         0.33026
C         -5.00228        -2.78820        -0.11108
C         -3.75579        -3.42393         0.46472
C         -2.45662        -2.75772         0.09011
C         -1.31112        -3.35933         0.49310
C          0.03953        -2.90757        -0.02501
C          1.16328        -3.15865         0.97902
C          2.45470        -2.42235         0.77482
C          3.71116        -2.99943         1.45623
C          5.05844        -2.35364         1.03166
C          6.32316        -3.19544         1.08553
C          7.63833        -2.54004         0.76412
C          8.88914        -3.33794         0.60903
C         10.07768        -2.70132         0.48494
C         -8.71572        -5.13679         0.52760
C         -7.42551        -5.83877         0.12226
C         -6.20478        -4.98907         0.00108
C         -4.88276        -5.67711        -0.03028
C         -3.56939        -4.91700         0.03043
C         -2.57835        -5.51820         1.00117
C         -1.36408        -4.64338         1.25266
C         -0.10284        -5.26216         1.76565
C          1.20933        -4.46189         1.82803
C          2.44476        -5.28216         1.42561
C          3.72862        -4.54078         1.27978
C          4.82689        -5.12088         0.40829
C          6.21401        -4.71512         1.00594
C          7.36242        -5.29052         0.14832
C          8.76021        -4.86156         0.66236
C         -7.34599        -7.16188        -0.15629
C         -6.04245        -7.87375        -0.54171
C         -4.89720        -7.16031         0.19530
C         -3.67582        -7.87663         0.70470
C         -2.57041        -6.98814         1.30558
C         -1.37456        -7.47521         2.14612
C         -0.02965        -6.77153         1.89842
C          1.18863        -7.45360         1.31981
C          2.20632        -6.54722         0.61391
C          3.49482        -7.26389         0.25708
C          4.70553        -6.63143         0.25198
C          5.95204        -7.38159         0.04167
C          7.18020        -6.78508         0.03224
C         -6.00274        -9.34048        -0.16535
C         -4.83335        -9.96189         0.05044
C         -3.50901        -9.22178        -0.04853
C         -2.32227       -10.12681         0.24920
C         -1.16007        -9.79588         0.77594
C         -0.01123        -9.67644         1.42039
C          1.15904        -8.89647         0.92440
C          2.18414        -9.45224         0.25358
C          3.36422        -8.67676        -0.28132
C          4.65173        -9.45253        -0.16898
C          5.84278        -8.83573        -0.06837
O          1.46582        -1.95175         1.74867
O         -6.42715        -3.26865         1.79116
O         -6.31560        -0.36852        -2.50891
O         -5.86192        -7.81372        -1.97734
H         -5.85768        -6.85757        -2.22601
O         -3.73501         4.31455        -2.71693
O         -9.85525        -5.88201         0.12129
H         -9.87260        -5.92260        -0.85649
O          4.05639        10.01350         0.50861
H          4.92381         9.81912         0.07063
O          1.37151        -4.10579         3.20463
H          0.48188        -3.86561         3.55270
O          3.86932         5.82362        -2.43444
H          4.57423         5.41649        -2.99456
O         -8.38072        -1.69150        -2.08745
O         -1.55118        -8.19426         3.10273
O         -1.47857         7.53644         2.89543
H         -0.94919         6.70798         2.78335
O          9.14759         5.56474        -2.06227
H          8.69086         4.94313        -2.68955
O         -0.72030        -0.68508         0.72534
O          4.38373         7.82359        -0.96394
O         -4.85257        -7.70523         1.54926
O         -0.06201         5.56980         1.58563
O          7.24210        -4.70167        -1.18125
H          7.98988        -5.01559        -1.73245
O         -8.36444         2.67517        -2.80705
O          4.86469         4.73499         0.95662
H          3.94564         4.83127         1.28853
O         -5.37390         6.40111        -2.49647
H         -4.50506         6.68979        -2.86883
O         10.17468        -0.66620         1.81039
H          9.46650        -1.13729         2.31499
O         -3.74849        -0.33340        -2.49586
O          6.41815         4.84875        -2.29524
O          8.71700         1.33747         0.83736
H          9.29771         0.79479         1.44243
O          3.45979        -5.33948         2.46310
O         -0.29151         5.84023        -2.19341
O          1.98974         4.52581         0.46103
O         -3.89699        -3.44952         1.89313
H         -4.10717        -2.55151         2.22087
O          3.02346         0.51927        -2.51039
O          6.13809         1.77692         0.43320
H          6.93144         1.67789         1.02188
O         -2.09320        -2.29963        -2.19139
H         -2.13969        -1.60087        -2.88727
O          8.25127         3.07617        -2.96536
O         -5.54318        -5.26675        -1.28991
O          7.82838         0.67846        -2.63239
H          7.86627         1.41428        -3.30704
O          1.55659        -6.03566        -0.62808
O         -0.93831         0.37055        -2.72897
H         -0.79598         1.22850        -3.18229
O          3.09790        -8.52585        -1.73027
H          3.84064        -8.01184        -2.11421
O         -3.19980        -5.99944         2.20284
O         -7.51205        -2.30128         1.49674
O         -1.05252        -4.61686         2.67868
O         -7.97043         5.86685        -2.28659
H         -7.17924         6.26089        -2.73153
O          5.84568        -2.51412         2.26126
O         -6.05433         4.40016         0.51615
H         -6.09549         5.18070         1.10955
O          7.79650        -1.38940         1.68185
O        -10.80602         1.44645        -1.99041
H        -10.16605         1.90648        -2.58756
O          6.54822         8.80608        -0.12098
H          6.60928         8.56331        -1.07010
O         -5.80653         2.90208        -3.90493
H         -4.85278         3.13989        -4.03977
O          3.60804        -2.69179         2.84559
H          2.81457        -3.15662         3.21516
O          4.63736        -4.51228        -0.87950
H          5.45968        -4.63164        -1.41383
O          1.06367        -7.21776         2.74920
O         -1.14141         4.62137         1.38336
H         -0.67370         3.74925         1.24827
O         -6.27047         4.00079        -3.07644
H         -7.98570         3.39074        -3.37548
O          4.49567         3.34019        -2.90653
O         -2.61586         6.73227        -2.40542
H         -1.69637         6.87679        -2.73849
O         -0.45788         1.82684         0.63370
H          0.30969         1.61917         1.22742
O          1.82267         3.29405        -2.87465
O         -2.97040        -4.97799        -1.26789
H         -3.65055        -4.73367        -1.93383
O         -7.97447         0.98992         0.29027
O        -11.00500        -1.71576        -1.75754
H        -10.39405        -1.97768        -2.48158
O          3.50589        -1.86760        -1.42069
O          0.32377        -3.62918        -1.22725
H         -0.39542        -3.42795        -1.87297
O         -3.29847        -8.85211        -1.43959
H         -4.16807        -8.60088        -1.84353
O          2.40697         8.58196         3.28642
H          1.52614         8.69955         3.69909
O          0.78936        -7.11599        -1.20958
H          1.48874        -7.65380        -1.68398
O          1.79183         0.80238         0.78141
H          1.46992         0.00550         1.27492
O         10.26577         1.36684        -2.50893
H          9.68538         2.09833        -2.87305
O          9.08624        -1.35187        -1.64770
H          8.75928        -0.74568        -2.36170
O          1.16016        -1.11108        -2.28897
H          2.06038        -1.31055        -2.64322
O          5.49041         0.84054        -2.99881
H          4.77687         1.19529        -3.57526
O          6.32644        -5.26835         2.32558
H          5.71451        -4.77099         2.91465
O          9.00777        -5.35131         1.97604
H          8.16776        -5.28611         2.49238
H         12.36694        -1.11893         0.05697
H         12.42359         1.07540        -0.96327
H         10.99886         3.40210        -0.20482
H          9.73082         5.43311        -0.06974
H          8.43086         7.18227         0.85841
H          6.74791         7.92794         2.80650
H          4.61949         9.01559         3.33699
H          2.25442        10.26063         2.04185
H         -0.12263         9.94672         2.36573
H         -2.64554        10.05457         2.16168
H         -5.01677        10.32979         1.71956
H         -7.16262         9.35658         0.95442
H         -8.39035         7.50912         0.03516
H         -9.47821         5.25723         0.29759
H        -10.67116         3.22631         0.34441
H        -11.69764         1.15746         0.91811
H        -11.66446        -1.27022         1.14434
H        -10.92404        -3.68925        -0.01967
H         -8.73346        -5.10379         1.65282
H         -8.26848        -7.76385        -0.11275
H         -6.95124        -9.89605        -0.10808
H         -4.81636       -11.03523         0.29420
H         -2.38317       -11.10068        -0.27486
H          0.02893        -9.97709         2.48624
H          2.14671       -10.52060        -0.00761
H          4.59847       -10.54798        -0.25689
H          6.77467        -9.42089        -0.05067
H          8.07850        -7.41162        -0.08744
H          9.53845        -5.30888        -0.01513
H         11.00640        -3.28916         0.40779
