         204
 CSIRO Nanostructure Databank - Neutral Graphene Oxide Data Set
C        -11.09399         0.65446        -0.08073
C         -9.88412         1.41518         0.26300
C         -8.57910         0.75618         0.30126
C         -7.42011         1.46894        -0.03360
C         -6.21924         0.73797        -0.45962
C         -4.92719         1.43920        -0.48258
C         -3.75454         0.69977        -0.58920
C         -2.47941         1.41772        -0.80567
C         -1.20482         0.73728        -0.56112
C          0.00636         1.44684        -0.46295
C          1.24954         0.74321        -0.26647
C          2.48875         1.42171        -0.18497
C          3.72142         0.69433        -0.03354
C          4.95529         1.39296         0.02273
C          6.19853         0.67479        -0.00198
C          7.43330         1.39124        -0.01588
C          8.66486         0.67502        -0.07884
C          9.90441         1.40286        -0.12608
C         11.13510         0.64819        -0.17159
C         -9.89548         2.78799         0.28642
C         -8.63210         3.55379         0.60553
C         -7.39729         2.88377         0.03843
C         -6.20961         3.59599        -0.17777
C         -4.93915         2.89626        -0.40465
C         -3.75704         3.61188        -0.46837
C         -2.48103         2.93466        -0.74140
C         -1.20259         3.62787        -0.45264
C         -0.00749         2.89159        -0.46089
C          1.29591         3.62880        -0.60462
C          2.52203         2.84479        -0.20335
C          3.71986         3.50804         0.06170
C          4.96118         2.81403         0.11915
C          6.21047         3.53730         0.13669
C          7.43882         2.81830         0.01853
C          8.67578         3.53767        -0.06451
C          9.89448         2.79810        -0.13452
C         -8.66090         5.02389         0.31097
C         -7.47167         5.73177         0.15262
C         -6.21746         5.02670        -0.05645
C         -5.01049         5.75674        -0.09991
C         -3.73857         5.11180        -0.59309
C         -2.45768         5.76235        -0.09818
C         -1.22212         5.02864        -0.17223
C          0.02220         5.72790         0.06176
C          1.25350         5.03525        -0.05816
C          2.45273         5.70938         0.19536
C          3.69263         4.94317         0.37766
C          5.00378         5.69389         0.45476
C          6.23915         4.94964         0.18180
C          7.45466         5.67640         0.02697
C          8.66126         4.95387        -0.08851
C         -7.44564         7.16853         0.16015
C         -6.24147         7.86530         0.20880
C         -5.01269         7.13042         0.16622
C         -3.74437         7.80541         0.45740
C         -2.47210         7.08468         0.29503
C         -1.23209         7.81701         0.76165
C          0.03773         7.11201         0.36544
C          1.25255         7.82425         0.37975
C          2.48390         7.11998         0.33922
C          3.74382         7.83157         0.32342
C          4.96506         7.15148         0.27918
C          6.21589         7.83785         0.10504
C          7.40932         7.11715         0.01166
C         -6.17375         9.31877         0.13539
C         -5.00044        10.00091         0.14087
C         -3.72181         9.33342         0.45613
C         -2.41653         9.97850         0.22835
C         -1.23166         9.29188         0.36709
C          0.03398         9.95984         0.26741
C          1.25002         9.28084         0.35507
C          2.50692         9.95973         0.28002
C          3.72072         9.27536         0.25581
C          4.98611         9.95932         0.13454
C          6.16964         9.28088         0.04868
C        -11.27646        -0.69665        -0.20793
C        -10.31182        -1.69360         0.22953
C         -8.45019        -0.63480         0.59823
C         -7.40186        -1.44248         0.25727
C         -6.22331        -0.79884        -0.35272
C         -4.92354        -1.44719        -0.19745
C         -3.74090        -0.74701        -0.42341
C         -2.48161        -1.47678        -0.52164
C         -1.21117        -0.72508        -0.65668
C          0.05095        -1.45954        -0.36271
C          1.22432        -0.69151         0.18769
C          2.50803        -1.45466        -0.02429
C          3.72172        -0.74666        -0.04421
C          4.96360        -1.46183        -0.06348
C          6.19838        -0.74503        -0.05090
C          7.43618        -1.46254        -0.07345
C          8.66603        -0.74594        -0.09085
C          9.90796        -1.47321        -0.12212
C         11.13704        -0.71641        -0.16322
C         -9.97713        -2.92301        -0.28253
C         -8.74372        -3.63424         0.04870
C         -7.48332        -2.92366         0.59822
C         -6.21556        -3.64240         0.17371
C         -4.93777        -2.87032         0.16448
C         -3.63788        -3.59902        -0.07434
C         -2.44873        -2.84957        -0.48454
C         -1.16535        -3.63496        -0.70675
C         -0.04904        -2.90819         0.06442
C          1.27533        -3.62030        -0.06429
C          2.49120        -2.88070        -0.05174
C          3.73235        -3.59844        -0.06911
C          4.96370        -2.88350        -0.06864
C          6.20586        -3.60180        -0.05888
C          7.43584        -2.88802        -0.07276
C          8.68033        -3.60779        -0.07505
C          9.89970        -2.86798        -0.10875
C         -8.68494        -5.00326        -0.09679
C         -7.45938        -5.75883         0.04081
C         -6.21488        -4.99953         0.01950
C         -4.97929        -5.76480        -0.29584
C         -3.67601        -5.05097        -0.39896
C         -2.41249        -5.78848        -0.21281
C         -1.21218        -5.07990        -0.24995
C          0.01702        -5.75598        -0.06722
C          1.26793        -5.02411        -0.06511
C          2.50231        -5.74042        -0.01196
C          3.73015        -5.02430        -0.03265
C          4.97125        -5.73885         0.00486
C          6.20356        -5.02498        -0.02294
C          7.44921        -5.74204        -0.00014
C          8.66185        -5.01858        -0.03797
C         -7.41214        -7.14645         0.09365
C         -6.17566        -7.88303         0.16784
C         -4.94237        -7.21146        -0.00583
C         -3.70455        -7.89110         0.08484
C         -2.44467        -7.19202        -0.00095
C         -1.21484        -7.88792         0.12981
C          0.01860        -7.17207         0.08798
C          1.26170        -7.87711         0.16611
C          2.49485        -7.16697         0.09182
C          3.73326        -7.87174         0.14205
C          4.96470        -7.16027         0.08344
C          6.21522        -7.87049         0.12091
C          7.41926        -7.16572         0.06856
C         -6.14252        -9.29569         0.38152
C         -4.94862        -9.98066         0.44441
C         -3.68960        -9.30852         0.31418
C         -2.46003        -9.99353         0.40203
C         -1.21406        -9.31822         0.30649
C          0.02566        -9.99559         0.38369
C          1.25978        -9.30548         0.29917
C          2.50985        -9.99016         0.34040
C          3.72447        -9.30376         0.25814
C          4.99431        -9.99040         0.28952
C          6.17591        -9.31042         0.21884
O          1.45892         3.80458        -2.07165
H          0.57629         4.01935        -2.44397
O         -8.48242         3.45808         2.08671
H         -7.68483         3.97730         2.32665
O          1.01152        -0.64611         1.65687
H          1.78563        -0.18841         2.05042
O         -7.56209        -3.04986         2.04728
H         -8.36373        -2.54797         2.32290
O         -3.72396         5.36651        -2.04793
H         -4.34594         4.73564        -2.46949
O         -0.85972        -3.71335        -2.11168
H         -0.70059        -2.79123        -2.43391
O         -4.41016        -5.39448        -1.62041
O         -1.25281         7.78770         2.22753
H         -2.13267         8.15663         2.49109
O         -0.26793        -1.19184        -1.75005
O         -0.43605        -2.94710         1.45898
H          0.11379        -2.28352         1.94032
O          4.31891         5.22925         1.68044
O         -3.79504         8.57907         1.72489
O         -6.44792        -0.12671        -1.63198
O         -2.46786         2.23565        -2.04018
O         -9.51782        -1.22782         1.30275
O         -4.06256        -3.25529         1.28967
H         12.08892        -1.26728        -0.19205
H         12.08545         1.20131        -0.20755
H         10.84740         3.34622        -0.18806
H          9.61219         5.49913        -0.18381
H          8.35661         7.66585        -0.10244
H          7.11485         9.83295        -0.06112
H          4.98112        11.05888         0.09255
H          2.50825        11.05908         0.22019
H          0.03685        11.05159         0.12283
H         -2.40257        11.04735        -0.03696
H         -4.98902        11.08601        -0.04174
H         -7.11662         9.86216        -0.02933
H         -8.39901         7.71703         0.18737
H         -9.59868         5.57654         0.47568
H        -10.83893         3.34232         0.16465
H        -11.94047         1.28868        -0.39532
H        -12.21491        -1.04881        -0.66565
H        -10.62785        -3.38122        -1.04406
H         -9.60189        -5.55767        -0.35311
H         -8.35457        -7.71484         0.11913
H         -7.09204        -9.83880         0.49669
H         -4.95052       -11.06848         0.60834
H         -2.46508       -11.08309         0.55951
H          0.03266       -11.08972         0.50416
H          2.51371       -11.08677         0.43451
H          4.99314       -11.08754         0.37108
H          7.12964        -9.85830         0.24368
H          8.37115        -7.71768         0.09284
H          9.61532        -5.56808        -0.02938
H         10.85427        -3.41563        -0.12277
