         280
 CSIRO Nanostructure Databank - Neutral Graphene Oxide Data Set
C         30.30929        31.85897         1.37696
C         30.53651        33.13782         1.18458
C         30.57824        36.35919         0.63618
C         30.55086        37.37838        -0.05157
C         30.66544        40.28929        -1.80998
C         30.72362        41.52243        -2.02040
C         32.61405        28.88252         1.30472
C         31.60903        29.59599         1.47962
C         32.70571        31.65151         0.94068
C         31.36954        30.99891         1.37711
C         32.87136        33.15187         1.18803
C         31.55619        33.97328         0.96196
C         32.74368        35.86639        -0.17891
C         31.74115        35.46403         0.99007
C         32.90399        37.44144        -0.25588
C         31.58153        38.06479        -0.91971
C         32.96292        40.20212        -1.29882
C         31.60227        39.58506        -0.85380
C         33.04446        41.61440        -1.49750
C         31.88500        42.35000        -1.94649
C         33.06473        44.44757        -1.53648
C         32.05863        43.74751        -1.82507
C         35.50549        27.24223         1.25002
C         35.29144        28.68845         1.40242
C         33.99564        29.41111         1.31097
C         35.30854        31.51177         0.39981
C         33.96643        30.84452         0.78097
C         35.27175        33.02932         0.45013
C         34.08071        33.73216         0.46833
C         35.35827        35.73661        -0.51051
C         34.04638        35.07966        -0.13028
C         35.44071        37.20405        -0.93531
C         34.11595        37.93251        -0.99981
C         35.16658        40.21874         0.06479
C         34.15852        39.34298        -1.35879
C         35.45172        41.64464        -0.46129
C         34.14087        42.37008        -0.76873
C         35.14016        44.74470         0.04636
C         34.06844        43.89076        -0.60808
C         35.70526        45.92396        -0.68378
C         37.66060        27.14250         0.01976
C         36.47649        26.65862         0.77789
C         37.79625        28.62579         0.50774
C         36.60740        29.38551         1.04411
C         37.78917        31.53457         0.67894
C         36.60060        30.85512         0.86052
C         37.75639        33.04739         0.88207
C         36.53201        33.72017         0.29146
C         37.82549        35.81584         0.04396
C         36.58175        35.05951        -0.03380
C         37.79542        37.18797        -0.01111
C         36.48399        37.90066        -0.05017
C         37.66857        40.09853         0.72687
C         36.38870        39.35155         0.32812
C         37.69754        41.64257         0.91156
C         36.38048        42.38665         0.52758
C         37.77909        44.56041         0.51224
C         36.42169        43.89390         0.48534
C         37.91576        45.97543         0.30194
C         36.69481        46.52694        -0.21964
C         40.35445        24.36667         0.22725
C         39.28799        25.11245         0.22931
C         40.24109        27.18458        -0.15364
C         38.97708        26.42394         0.18604
C         40.28704        28.65357         0.28529
C         38.97967        29.39909        -0.07535
C         40.26012        31.51984         0.38806
C         39.04068        30.84805         0.41866
C         40.30426        32.95793         0.85746
C         39.05028        33.73307         0.51800
C         40.37323        35.82120         0.05799
C         39.07521        35.05834         0.22180
C         40.20535        37.23055         0.66593
C         39.06771        37.99163        -0.05099
C         40.24585        40.11235         0.41427
C         38.97176        39.37061         0.57409
C         40.16965        41.52226         0.02744
C         38.88406        42.30243         0.21063
C         40.21952        44.42726         0.44584
C         38.95885        43.78142         0.39133
C         40.28860        45.78193         0.81269
C         39.15821        46.62160         0.50501
C         40.38196        48.79260        -0.22899
C         39.56284        47.93084         0.13797
C         42.93572        24.49593        -0.09659
C         41.58320        24.93417         0.02773
C         42.86353        27.22706        -0.07018
C         41.55116        26.44322        -0.25586
C         42.78010        28.70769        -0.47797
C         41.48068        29.42903        -0.27500
C         42.74365        31.54800         0.08268
C         41.50953        30.87468         0.05139
C         42.77532        32.95635         0.40448
C         41.59561        33.67130         0.52154
C         42.78953        35.81970         0.75109
C         41.60689        35.10879         0.57193
C         42.71004        37.30058         1.12498
C         41.49165        38.00984         0.60150
C         42.71764        40.08606        -0.05658
C         41.46510        39.39806         0.43400
C         42.74208        41.56453         0.31920
C         41.46238        42.26800        -0.10176
C         42.79359        44.43010         0.35260
C         41.48881        43.74993         0.11354
C         42.77279        45.76116         0.89117
C         41.55696        46.34043         1.22980
C         42.77416        48.75337        -0.16434
C         41.57970        49.44715        -0.54643
C         44.00172        25.09978        -0.31010
C         45.34141        27.27091        -0.68635
C         44.04743        26.51851        -0.85424
C         45.32326        28.78623        -0.61502
C         44.03361        29.51050        -0.44681
C         45.21257        31.73528        -0.55936
C         44.00105        30.87192        -0.24105
C         45.30386        33.03818         0.17084
C         44.07172        33.60917         0.82487
C         45.25574        35.80499         0.89366
C         44.04533        35.12525         0.81823
C         45.28429        37.28984         0.95734
C         44.01492        38.07124         0.91110
C         45.20290        40.07442        -0.00044
C         44.03104        39.42972         0.29392
C         45.23104        41.53085        -0.36630
C         43.95702        42.30386        -0.21914
C         45.25977        44.43904         0.20810
C         43.98096        43.76681         0.06867
C         45.17427        46.00476         0.11467
C         44.02910        46.63631         0.92648
C         43.53793        47.91321         0.29651
C         47.64383        27.47924        -1.45969
C         46.59233        26.84335        -1.33132
C         47.78045        28.93747        -1.58359
C         46.50415        29.60480        -1.09829
C         47.72251        31.72863        -0.67877
C         46.55605        31.02903        -0.66360
C         47.71821        33.23086        -0.48520
C         46.47468        33.73481         0.21581
C         47.73465        35.79486         0.69116
C         46.50706        35.12346         0.66176
C         47.79246        37.28693         0.95922
C         46.53032        37.92043         0.42181
C         47.78478        40.09464        -0.28936
C         46.49334        39.32923        -0.04194
C         47.71746        41.50655         0.30709
C         46.55694        42.31457        -0.35104
C         47.77202        44.32605         0.74741
C         46.42988        43.72098         0.25759
C         47.59635        45.78860         0.51045
C         46.55149        46.44283         0.51391
C         50.31422        29.21222        -1.39951
C         49.04194        29.64948        -1.39222
C         50.28389        31.75494        -0.54768
C         49.03777        31.19801        -1.25202
C         50.20990        32.96952         0.13136
C         48.99774        33.74780         0.16498
C         50.20557        35.81867         0.94721
C         48.96282        35.06678         0.62106
C         50.25902        37.26074         0.55907
C         49.04531        37.97813         0.45332
C         50.26455        40.05883        -0.02826
C         49.04266        39.34704         0.13825
C         50.25006        41.51610        -0.15965
C         49.03431        42.23700         0.08127
C         50.23964        44.20408        -0.08900
C         48.98182        43.64205         0.17541
C         51.48466        29.70820        -1.14354
C         52.63115        31.72179        -0.02946
C         51.55730        30.98577        -0.62111
C         52.60092        32.79072         0.59089
C         51.35976        33.47976         1.08067
C         52.61729        35.79368         0.67766
C         51.46579        34.99537         1.12354
C         52.58634        37.01894         0.48198
C         51.48577        37.92739         0.29636
C         52.60817        40.15600        -0.23857
C         51.49274        39.30955         0.01481
C         52.63222        41.39241        -0.41691
C         51.49318        42.24595        -0.35887
C         51.34029        43.64699        -0.35724
O         38.30145        39.44617         1.86592
O         44.41897        41.88591        -1.53915
O         33.05788        31.09169        -0.35434
O         34.69066        29.27127         2.57749
O         39.22330        41.78762        -1.09262
O         33.51803        42.99088         0.40756
O         44.82124        37.98623         2.15701
O         42.58874        40.06233        -1.54778
O         46.46094        38.17446        -1.00238
O         44.92309        32.06148        -2.05752
O         41.91875        29.05539        -1.61742
O         45.60151        27.92592         0.58043
O         41.50885        43.13437        -1.24489
O         35.93360        43.13542         1.66436
O         50.79697        35.55075         2.28746
O         46.82716        29.49425        -2.53628
O         37.68100        28.87065         1.91996
O         40.81156        26.82388        -1.45577
O         34.61824        34.98020        -1.51920
O         36.00560        38.29844         1.27923
O         39.39633        38.24417        -1.44122
H         39.56074        37.37087        -1.87252
O         47.66370        33.82543        -1.82641
H         48.31482        33.32358        -2.38485
O         39.79723        37.05641         2.03528
H         40.60308        37.09414         2.60308
O         40.62044        35.95623        -1.37840
H         40.90190        35.08348        -1.72697
O         32.97529        37.96566         1.11482
H         32.31202        38.70349         1.19462
O         40.32979        32.89366         2.33713
H         40.89452        32.13426         2.59704
O         51.01700        32.99677         2.36599
H         51.03240        33.74873         3.00011
O         44.92350        46.30370        -1.24656
H         45.63631        45.91550        -1.79519
O         47.45215        41.36601         1.71031
H         47.61452        42.23867         2.14947
O         41.55579        47.46556         1.99392
H         40.63695        47.76918         2.14527
O         31.31528        39.98008         0.48707
H         31.34759        40.95972         0.54508
O         43.76456        26.51847        -2.23175
H         42.87162        26.14538        -2.39232
O         44.92300        33.48231        -2.24811
H         45.89667        33.71069        -2.32012
O         40.42759        28.65716         1.71609
H         41.23007        28.13937         1.95669
O         44.18397        33.23799         2.25215
H         43.50713        33.75088         2.74463
O         36.04752        37.18435        -2.27070
H         35.57894        36.48375        -2.77868
O         31.45761        37.72063        -2.27112
H         31.36240        36.73920        -2.32284
O         37.60467        33.23072         2.32341
H         38.49695        33.10103         2.72845
O         34.37832        40.26259         1.16707
H         34.45118        39.38617         1.62792
O         37.95759        41.90529         2.29627
H         37.30597        41.42037         2.84382
O         36.28098        41.63014        -1.62655
H         35.84237        41.09281        -2.33491
O         32.27387        35.76968         2.26884
H         32.54466        36.72470         2.25626
O         43.11450        27.21578         1.34661
H         44.06514        27.45374         1.49612
O         44.47122        46.86922         2.26098
H         43.74819        47.31936         2.74680
O         47.76461        37.48447         2.39628
H         48.58236        37.09801         2.77575
O         34.96857        39.60921        -2.47123
H         35.51563        38.79738        -2.65441
O         42.47822        37.22900         2.57942
H         43.34582        37.44388         3.00913
O         34.57102        45.26433         1.24123
H         34.07552        44.53470         1.67473
O         33.16074        33.23899         2.59802
H         33.02535        34.17810         2.87782
O         46.93045        42.59661        -1.71070
H         46.10632        42.55530        -2.25044
O         32.08681        35.38521        -1.37374
H         32.79042        35.10165        -2.00270
O         41.60734        50.62897        -1.17650
H         42.52753        50.91391        -1.34236
O         37.33881        27.13925        -1.36964
H         37.91418        27.79921        -1.82776
O         42.80319        41.60771         1.76489
H         42.98211        42.52901         2.04944
O         47.82490        44.09210         2.17463
H         47.19193        44.70288         2.60952
O         49.06685        31.69715        -2.62810
H         48.39017        31.19353        -3.13592
O         38.85565        29.39947        -1.51344
H         39.73603        29.56315        -1.91896
O         35.44706        31.26447        -1.04254
H         34.54649        31.36025        -1.43798
O         42.30572        38.70095        -1.93884
H         41.31078        38.68310        -1.99111
O         47.92150        40.23457        -1.71743
H         47.62583        39.38795        -2.12147
