         280
 CSIRO Nanostructure Databank - Neutral Graphene Oxide Data Set
C         31.04235        31.33603        -2.01163
C         30.96636        32.54431        -2.32504
C         30.60815        35.82918        -2.07430
C         30.51338        37.00886        -1.70916
C         30.29306        40.14780        -0.78266
C         30.30414        41.09925         0.01052
C         33.14221        28.75854        -0.26068
C         32.25363        29.24872        -1.01954
C         33.35383        31.38018        -1.35224
C         32.08618        30.53428        -1.53132
C         33.27013        32.88568        -1.53587
C         32.01133        33.55186        -2.12438
C         32.86991        35.90410        -1.35396
C         31.84719        35.03066        -2.08662
C         32.93963        37.38005        -1.88652
C         31.52576        38.07420        -1.82709
C         32.67341        40.43866        -1.34772
C         31.41223        39.52119        -1.47782
C         32.52417        41.85426        -0.77862
C         31.20511        42.24956        -0.05014
C         32.44629        44.03594         0.98646
C         31.48230        43.26733         0.96547
C         35.57922        27.65247         1.58232
C         35.69316        28.46171         0.33038
C         34.53866        29.22634        -0.28841
C         35.67518        31.60040        -0.12232
C         34.56538        30.71086        -0.67292
C         35.26660        33.04139         0.16690
C         34.10898        33.70066        -0.56393
C         35.10648        36.06374        -0.07559
C         33.94189        35.22593        -0.54314
C         35.06890        37.55090        -0.38388
C         33.95023        38.24120        -1.10597
C         35.33652        40.50776        -1.04274
C         34.01582        39.75192        -1.34734
C         35.15526        41.97862        -0.61074
C         33.81088        42.64328        -0.50285
C         34.98097        44.76137         0.57841
C         33.73648        43.98707         0.30203
C         35.31592        45.83995         1.52540
C         37.89297        27.58343         2.34865
C         36.55144        27.05084         2.07348
C         38.09003        28.84777         1.49017
C         36.95551        29.42329         0.68279
C         37.79583        31.77982         1.48627
C         36.83748        30.94600         0.61820
C         37.66200        33.27449         1.26672
C         36.25368        33.91023         1.00149
C         37.64037        36.11378         0.35810
C         36.31106        35.41259         0.55639
C         37.63339        37.57286         0.04340
C         36.30688        38.30848         0.02741
C         37.67952        40.44644        -0.07306
C         36.32589        39.78516        -0.12848
C         37.67999        41.93194         0.05337
C         36.30054        42.61256         0.23149
C         37.63757        44.88076         0.31623
C         36.32789        44.15062         0.13318
C         37.73356        46.07548         1.27145
C         36.35960        46.49816         1.59037
C         40.40811        24.93168         3.37458
C         39.35600        25.57503         3.37478
C         40.48927        27.65278         2.80070
C         39.09787        26.96483         2.98300
C         40.48891        29.07762         2.33455
C         39.25520        29.68155         1.81319
C         40.38991        31.96045         1.52333
C         39.15023        31.16116         1.97818
C         40.25187        33.30964         0.85643
C         38.87731        33.89827         0.58368
C         40.01158        35.87939        -0.75406
C         38.78881        35.25206        -0.07291
C         39.95443        37.32620        -1.32281
C         38.74956        38.19074        -0.78176
C         40.11507        40.42101        -0.82669
C         38.80236        39.69754        -0.73550
C         40.19087        41.88940        -0.51407
C         38.91857        42.70177        -0.32009
C         40.29321        44.81841         0.29443
C         38.95440        44.17515        -0.03093
C         40.31804        46.25953         0.82251
C         39.03008        46.78407         1.46175
C         40.34543        48.64653         2.29625
C         39.25733        48.13563         2.00256
C         42.87518        24.63644         2.46693
C         41.78985        25.35364         3.14253
C         42.77084        27.31189         1.60759
C         41.76216        26.82780         2.66214
C         42.89673        28.81436         1.44389
C         41.78134        29.73140         1.88452
C         42.69542        31.66057         0.41959
C         41.79116        31.26910         1.59365
C         42.76565        33.14058         0.09298
C         41.49225        33.94247         0.21463
C         42.59770        35.80139        -1.19420
C         41.32677        35.14605        -0.67897
C         42.62761        37.30679        -1.27729
C         41.30859        38.09740        -1.22433
C         42.63017        40.11117        -0.24743
C         41.36721        39.56719        -0.88111
C         42.72594        41.60166         0.05502
C         41.51634        42.48572        -0.07578
C         42.66992        44.37148         1.28885
C         41.51326        43.92494         0.42484
C         42.58495        45.81315         1.89323
C         41.64152        46.83819         1.21152
C         42.91542        48.48356         2.62962
C         41.72775        48.61747         1.79934
C         43.85769        25.15907         1.92215
C         45.20806        26.92412         0.50534
C         43.93904        26.43044         1.18592
C         45.18577        28.52116         0.25256
C         43.94652        29.33461         0.49821
C         45.20515        31.51185         0.01584
C         43.87653        30.79800         0.09686
C         45.22192        32.88159        -0.60689
C         43.91746        33.60536        -0.78300
C         45.22248        35.79728        -1.58386
C         43.89347        35.03797        -1.27512
C         45.21271        37.18765        -0.89060
C         43.94582        37.99852        -1.06301
C         45.20029        40.18042        -0.43776
C         43.92308        39.36945        -0.43146
C         45.20749        41.54092         0.19254
C         43.94362        42.00400         0.91854
C         45.23680        44.19399         1.50685
C         43.94574        43.50067         1.33706
C         45.22433        45.47160         2.28350
C         43.96696        46.28984         2.43166
C         43.89602        47.73559         2.68964
C         47.60954        27.21427         0.69948
C         46.55526        26.71389         1.10442
C         47.83834        28.53318         0.08548
C         46.50314        29.26032        -0.01083
C         47.87693        31.52222         0.27929
C         46.50387        30.76631         0.16873
C         47.79445        33.01569        -0.14102
C         46.50269        33.67626        -0.55205
C         47.80577        35.78702        -1.20773
C         46.52651        35.00763        -1.26452
C         47.74675        37.29373        -1.34568
C         46.49545        37.95216        -0.80316
C         47.78321        40.01854        -0.18563
C         46.50490        39.48191        -0.86785
C         47.78278        41.37310         0.49463
C         46.49766        42.11559         0.71484
C         47.86853        44.24046         1.27842
C         46.49151        43.59583         1.00484
C         47.62385        45.46187         2.03842
C         46.57817        46.03961         2.34240
C         50.15585        28.66315        -1.01542
C         49.14303        29.24545        -0.11444
C         49.98247        31.46397        -1.30728
C         49.09322        30.75374        -0.30063
C         50.09278        32.95291        -1.24710
C         49.17881        33.69750        -0.27331
C         50.32820        35.96753        -0.92805
C         49.06327        35.22069        -0.59315
C         50.30330        37.35770        -1.44167
C         49.01855        38.09055        -1.43572
C         50.18700        40.41963        -1.12693
C         49.05243        39.44939        -0.74469
C         50.32160        41.60699        -0.13881
C         49.12602        42.05778         0.67045
C         50.39592        44.01363         1.21422
C         49.08135        43.37172         1.54515
C         51.10147        29.21135        -1.58393
C         52.41576        31.43919        -1.78930
C         51.31956        30.52398        -2.18639
C         52.48859        32.66682        -1.69189
C         51.41718        33.66844        -1.57519
C         52.71143        36.02172        -1.15233
C         51.54656        35.12685        -1.29498
C         52.70459        37.24151        -1.33669
C         51.55896        38.13629        -1.56467
C         52.63495        40.46992        -0.88371
C         51.53992        39.63771        -1.36193
C         52.71232        41.59260        -0.37405
C         51.57077        42.58535        -0.39498
C         51.42524        43.61506         0.67379
O         44.15655        28.64153        -0.77272
O         47.13758        28.69475        -1.19004
O         45.05847        41.42410        -1.23403
O         49.33378        32.28212        -2.30637
O         33.44950        40.27362        -2.57333
O         42.57589        34.08896         1.17662
O         51.61842        39.08224        -2.68180
O         48.64288        39.15767         0.62462
O         43.16961        39.29117         0.82481
O         41.43627        39.11095        -2.26194
O         42.95225        43.53439         2.44532
O         42.76008        30.93630        -0.83621
O         35.34761        36.10319         1.37456
O         38.27409        39.00335        -1.89431
O         45.91344        37.32727         0.37356
O         36.86621        44.97217        -0.92143
O         33.93942        33.10955         0.76602
O         43.00041        35.14190        -2.42659
O         37.51301        32.69997         2.57762
O         47.06175        41.29929         1.77615
O         44.42826        45.45409         3.50882
O         33.90086        32.05752        -2.54174
O         49.78264        30.10242         0.82681
O         34.65095        42.80838        -1.68131
O         42.28091        26.41138         3.96823
O         38.04242        37.09566         1.36080
O         41.27469        44.73195        -0.76303
O         35.98703        39.20692         1.14492
O         46.98193        33.76343         0.82816
O         42.91472        29.43602         2.75381
O         33.87417        38.06327         0.32437
O         49.73222        35.97552         0.44130
O         42.53765        42.39710        -1.12807
O         32.70068        35.70679         0.06695
O         51.34080        34.62515        -2.65140
O         50.16641        41.18600         1.22851
O         35.00787        29.67898        -1.59468
O         32.29870        34.40118        -3.28198
O         47.44268        35.02580        -2.39190
O         31.26891        39.05017        -2.84241
O         42.74718        26.58913         0.34761
O         38.57622        45.76758         2.40763
O         40.43182        34.94473        -1.79021
O         44.46738        32.77796        -1.84707
O         38.83350        43.66782        -1.38861
O         40.57501        28.72346         3.77895
O         45.75480        31.25814         1.34026
O         38.41639        34.04533        -0.79805
O         38.07647        28.80502        -0.01577
O         41.17996        47.01651        -0.12325
O         38.21445        27.80329         3.73698
O         43.42495        37.81432        -2.39427
O         47.31331        44.31509        -0.03812
O         38.00050        41.06243         1.20439
O         40.42324        33.20379         2.29476
O         36.94928        31.43891        -0.77041
O         48.18681        37.84577        -2.61637
O         34.11754        45.11300        -0.51304
O         31.47652        42.67382        -1.38946
O         40.19143        41.41116        -1.88832
O         35.89092        42.40746         1.60164
H         36.43574        41.67618         1.98726
O         46.66670        39.78339        -2.26567
H         46.24393        40.65179        -2.45922
O         36.05041        40.55738        -2.28973
H         35.50641        41.08210        -2.92113
O         43.94691        41.26241         2.14051
H         43.43452        41.75453         2.81984
O         45.28568        36.04878        -2.97983
H         44.36950        36.04733        -3.34615
O         35.66930        33.93361         2.30509
H         34.83550        34.45374         2.26808
O         51.05296        30.55815        -3.52215
H         51.06930        31.47890        -3.85527
O         49.01228        42.98307         2.89523
H         49.67766        42.27738         3.04966
O         36.10675        27.54577        -0.66326
H         36.10640        27.99863        -1.53463
O         45.24710        26.31367        -0.76931
H         44.42433        26.55448        -1.24917
O         48.15504        31.56512         1.68301
H         47.41415        32.04568         2.11704
O         39.19110        31.27181         3.42319
H         39.24801        32.22809         3.65228
O         51.44948        43.14990        -1.65941
H         52.18183        43.77848        -1.82049
O         39.70655        37.14024        -2.71006
H         39.88648        37.98992        -3.17163
O         42.47783        31.85956         2.70127
H         42.02626        31.60075         3.53190
O         49.80186        40.97484        -2.38485
H         50.09432        40.36720        -3.10251
O         41.93911        49.38712         0.68985
H         41.21627        49.25065         0.04172
O         41.80352        45.62805         3.10072
H         42.36512        45.13896         3.74593
O         49.83381        33.57182         0.98668
H         49.27015        33.97361         1.68160
O         33.34804        37.30068        -3.24382
H         32.99341        38.08250        -3.72616
