         252
 CSIRO Nanostructure Databank - Neutral Graphene Oxide Data Set
C         30.64086        31.90728         1.88838
C         30.68795        33.13038         1.57186
C         30.31368        36.05697         0.59930
C         30.41840        37.30647         0.62851
C         30.66684        40.40272         1.87137
C         31.02301        41.59318         2.06597
C         33.22919        29.24512         2.16640
C         32.10184        29.77713         2.12770
C         32.84108        31.73142         0.94549
C         31.77740        31.10043         1.68834
C         32.81748        33.12934         0.64126
C         31.67472        33.91436         0.97961
C         32.71479        36.05163         0.13915
C         31.66595        35.40687         1.04546
C         32.69208        37.60012        -0.04228
C         31.48780        38.22332         0.76151
C         33.42584        40.37611         0.99111
C         31.54522        39.28953         1.61949
C         33.01311        41.78818         0.62287
C         32.03168        42.49241         1.65157
C         33.36556        44.43917         1.29126
C         32.39417        43.79095         1.84602
C         36.07223        27.79578         1.77411
C         35.72469        29.15028         1.35119
C         34.28261        29.54917         1.19577
C         35.21838        31.62255        -0.08962
C         34.03087        30.92442         0.54936
C         35.21657        33.12519        -0.01540
C         34.04056        33.80761         0.17007
C         35.15310        36.01444        -0.79769
C         33.93442        35.25472        -0.22840
C         35.16712        37.49492        -0.42582
C         34.10066        38.20737         0.03552
C         35.19456        40.42655        -0.68577
C         34.22106        39.67246         0.14749
C         35.28541        41.89756        -0.45761
C         34.26071        42.56083         0.20450
C         35.31670        44.78314        -0.38627
C         34.33256        43.99822         0.42164
C         35.70761        46.11124         0.23258
C         37.78220        26.97985         0.29605
C         37.01983        27.01282         1.61828
C         37.79804        28.47437        -0.14586
C         36.48968        29.25777        -0.24846
C         37.72971        31.63051        -0.54194
C         36.46008        30.83434        -0.49388
C         37.77225        33.10542        -0.30390
C         36.49043        33.87279        -0.19784
C         37.67010        35.98932        -0.71846
C         36.48950        35.32571        -0.52431
C         37.73745        37.47626        -0.68120
C         36.46329        38.23368        -0.58617
C         37.68284        40.37178        -1.56781
C         36.40678        39.64934        -1.10928
C         37.72750        41.83253        -1.07398
C         36.55849        42.57712        -0.72176
C         37.88827        44.66611        -0.70178
C         36.64041        43.98164        -0.56539
C         37.95971        46.11087        -0.66746
C         36.74535        46.66158        -0.24336
C         40.49823        24.30201         0.40518
C         39.40578        24.93894         0.45686
C         40.31897        26.94470        -0.17724
C         39.15449        26.32821         0.27676
C         40.29976        28.42179        -0.27582
C         38.96205        28.92279        -0.65339
C         40.21990        31.69698        -0.55170
C         38.91466        31.11528        -0.94974
C         40.28434        33.15110        -0.72205
C         38.93676        33.75823        -1.06687
C         40.25277        36.01956        -0.96039
C         38.94602        35.27725        -1.01243
C         40.21114        37.50290        -0.81355
C         39.00129        38.20293        -1.00918
C         40.21792        40.31553        -1.56978
C         38.96282        39.58630        -1.28641
C         40.04129        41.76641        -1.80804
C         38.94568        42.53681        -1.25713
C         40.37521        44.61532        -0.74592
C         39.06866        43.93073        -1.00353
C         40.37686        46.10143        -0.57498
C         39.15992        46.76626        -1.27679
C         40.23215        48.80960        -0.38684
C         39.32350        48.22626        -0.99415
C         43.06164        24.38935        -0.08832
C         41.71226        24.79308        -0.07826
C         42.87018        27.15331        -0.62409
C         41.60502        26.27100        -0.44287
C         42.85494        28.64881        -0.41967
C         41.52011        29.31183        -0.27019
C         42.74698        31.62278        -0.32033
C         41.46663        30.85965        -0.28442
C         42.70393        33.02323        -0.36436
C         41.48220        33.81004        -0.57178
C         42.71525        35.96067        -0.57736
C         41.52436        35.27376        -0.68490
C         42.76511        37.40274        -0.96112
C         41.49241        38.16747        -1.10057
C         42.75757        40.35391        -0.60309
C         41.56270        39.67434        -1.21931
C         42.70143        41.67051        -0.06742
C         41.40732        42.34364         0.21892
C         42.50573        44.50449         0.76746
C         41.46023        43.82909        -0.06745
C         42.47718        45.99627         0.79050
C         41.37621        46.76358         0.10244
C         42.56627        48.76397         0.76532
C         41.41918        48.25373         0.18084
C         44.07502        25.01979        -0.46286
C         45.43804        27.24621        -0.22189
C         44.23470        26.46381        -0.59294
C         45.28431        28.72288         0.20862
C         44.00538        29.39464        -0.28736
C         45.21886        31.54351        -0.42399
C         44.00622        30.87361        -0.30559
C         45.26065        33.00080        -0.30154
C         43.95610        33.78361        -0.18979
C         45.17219        35.92712        -0.44357
C         43.97787        35.26057        -0.41093
C         45.28086        37.40636        -0.57839
C         44.03938        38.19090        -0.81721
C         45.11860        40.26405         0.09519
C         43.97145        39.63417        -0.43222
C         45.10192        41.65453         0.40742
C         43.85851        42.34707         0.36121
C         45.05046        44.49937         0.97673
C         43.76772        43.67917         1.10469
C         44.99290        45.90647         1.12711
C         43.79398        46.67310         1.06932
C         43.57713        48.02960         1.06450
C         47.60854        27.51277         0.63010
C         46.69950        26.71577         0.35864
C         47.80190        28.89975         0.26916
C         46.56832        29.48746        -0.04232
C         47.83695        31.60076        -0.69156
C         46.49661        30.79432        -0.78400
C         47.72670        33.07311        -0.57402
C         46.52164        33.72879        -0.56214
C         47.67077        35.91078        -0.09090
C         46.46796        35.23617        -0.79491
C         47.68365        37.41128         0.03644
C         46.47881        38.08375        -0.02049
C         47.60398        40.17340         0.66051
C         46.29829        39.44448         0.59465
C         47.57466        41.60398         1.14891
C         46.30418        42.36403         0.77767
C         47.59107        44.46076         1.07690
C         46.29059        43.75953         0.96013
C         47.38028        45.86761         1.20152
C         46.30368        46.48458         1.24694
C         50.15251        29.27414         1.03012
C         49.05476        29.54663         0.18604
C         50.54683        31.61974        -0.20512
C         49.24506        30.90707        -0.41713
C         50.84827        32.84025        -0.89298
C         48.84857        33.89883         0.00608
C         50.24640        36.03490        -0.22205
C         48.99786        35.30207        -0.62229
C         50.14603        37.24090         0.48446
C         48.89931        37.96965         0.57156
C         50.09367        40.15753         1.37661
C         48.79812        39.38283         0.99696
C         50.14660        41.61915         1.08990
C         48.84432        42.30440         0.64363
C         50.12282        44.28928         0.92623
C         48.79606        43.81179         0.95364
C         51.03787        29.97680         1.56732
C         52.06083        32.37347         1.58872
C         51.63586        31.12940         0.80201
C         52.16434        33.43266         0.92834
C         51.62619        33.90005        -0.29971
C         52.64304        36.18159        -0.11617
C         51.57576        35.34046        -0.73719
C         52.57740        37.17240         0.60257
C         51.38793        37.89015         1.06870
C         52.53102        40.24586         1.39987
C         51.38826        39.33260         1.46366
C         52.50801        41.45221         1.10933
C         51.35954        42.31506         1.01071
C         51.24674        43.74073         0.78817
O         35.45857        31.18679        -1.48895
O         49.20451        39.71166         2.40192
O         37.40819        33.62149         0.98674
O         32.84989        39.65339         2.03968
O         38.96810        29.91266        -1.63616
O         44.95445        37.92357        -1.93400
O         51.32814        38.29016         2.44934
O         40.46288        41.77968         0.75461
O         37.26942        38.05333         0.62800
O         41.57644        44.15775        -1.48477
O         35.32163        39.89525        -2.05182
O         45.17440        26.96846        -1.59331
O         33.72814        29.66482        -0.12909
O         49.30520        33.59606         1.09204
O         32.77841        35.38098        -1.14676
O         42.10541        26.68159        -1.77554
O         41.22357        39.91829        -2.63720
O         48.71181        31.10184        -1.76662
O         44.70504        33.42533         1.01502
O         39.58369        35.71842        -2.27020
O         42.16745        37.57364        -2.28800
O         40.86957        28.90393         1.00300
O         41.96826        45.19542         1.93493
O         40.61133        31.31636         0.81743
O         37.02531        26.27144        -0.65782
H         36.21853        26.79436        -0.87839
O         45.91865        39.19892         2.02734
H         46.62213        38.63380         2.41772
O         47.59007        41.64357         2.59847
H         46.89412        41.02453         2.91453
O         48.81942        42.19131        -0.79862
H         49.59258        42.67548        -1.16015
O         40.78371        42.28810        -2.71386
H         41.37914        41.55502        -3.06747
O         50.37028        33.06704        -2.13720
H         49.77213        32.31789        -2.39720
O         37.61743        40.50733        -3.01615
H         36.66459        40.44612        -3.26896
O         35.04687        35.96408        -2.24210
H         34.08696        36.03561        -2.45892
O         35.70251        28.61715        -1.21302
H         35.06727        29.27842        -1.58694
O         47.49922        35.48835         1.28964
H         48.30683        35.71376         1.80008
O         48.96219        35.20296        -2.05849
H         49.88632        35.31260        -2.40722
O         45.07820        28.64548         1.65066
H         45.08248        29.55370         2.01999
O         52.75559        30.70029         0.06594
H         53.48270        30.47929         0.68343
O         39.20508        46.47196        -2.66884
H         40.00501        46.88305        -3.05668
O         32.20123        41.62461        -0.56305
H         32.07112        42.50323        -0.97889
O         38.67764        33.36877        -2.44287
H         39.10250        34.05359        -3.01399
O         51.59728        35.45819        -2.16311
H         52.23815        34.81349        -2.52852
O         43.65828        43.30369         2.50007
H         43.19815        44.04041         2.96574
O         46.43346        35.38618        -2.22998
H         47.35144        35.34841        -2.59275
O         46.30746        30.47500        -2.19106
H         47.16360        30.13730        -2.53923
O         34.75475        44.96223        -1.68932
H         35.35348        45.54304        -2.20459
O         31.93975        35.78718         2.38469
H         31.30115        35.34036         2.97921
O         36.34315        30.12992         2.16620
H         37.16758        29.76421         2.54966
O         32.32533        37.85083        -1.41136
H         31.50849        37.34282        -1.60763
