         600
 CSIRO Nanostructure Databank - Neutral Graphene Oxide Data Set
C         23.02400        27.31432        -0.65757
C         23.01483        28.68260        -0.52119
C         23.03123        31.58716        -0.11479
C         23.03961        32.96032         0.00293
C         23.06058        35.85705         0.29331
C         23.06268        37.22895         0.51231
C         23.10022        40.13120         0.88679
C         23.10303        41.52615         1.04825
C         23.02532        44.45258         0.90583
C         23.01138        45.82891         0.86672
C         25.47371        24.51121        -0.93462
C         24.27779        25.18935        -0.87304
C         25.47965        27.32586        -0.73510
C         24.25305        26.60558        -0.75771
C         25.46348        28.75165        -0.64180
C         24.22663        29.43239        -0.51024
C         25.43771        31.59850        -0.52930
C         24.22323        30.86965        -0.37921
C         25.41301        33.01914        -0.50286
C         24.22645        33.70888        -0.21395
C         25.42363        35.91174        -0.29380
C         24.22330        35.16813        -0.09309
C         25.40487        37.31732        -0.09659
C         24.23508        37.98805         0.32936
C         25.48809        40.16830         0.40505
C         24.25527        39.43561         0.53390
C         25.50924        41.58210         0.65666
C         24.27055        42.27128         0.91498
C         25.46415        44.43892         0.88868
C         24.25329        43.73289         0.93005
C         25.46685        45.85763         0.81377
C         24.22635        46.55954         0.81278
C         25.41221        48.67588         0.68941
C         24.22960        47.98165         0.75991
C         28.02962        23.07371        -0.98542
C         27.97655        24.48568        -0.88070
C         26.71902        25.19964        -0.87706
C         27.95499        27.34484        -0.72039
C         26.71925        26.61608        -0.78750
C         27.94835        28.76990        -0.68121
C         26.70008        29.48600        -0.66653
C         27.93264        31.63113        -0.67745
C         26.68839        30.89497        -0.65956
C         27.92981        33.03827        -0.69375
C         26.63463        33.76720        -0.96606
C         27.87968        35.89271        -0.60306
C         26.66560        35.22283        -0.57510
C         27.89926        37.36317        -0.63994
C         26.60574        38.10839        -0.40070
C         27.92516        40.20165        -0.00218
C         26.68224        39.51704         0.02956
C         27.95070        41.60609         0.33143
C         26.73513        42.27506         0.62749
C         27.97648        44.46909         0.64820
C         26.76235        43.70419         1.10625
C         27.95341        45.88059         0.60843
C         26.69697        46.59289         0.71269
C         27.91226        48.73985         0.51047
C         26.67004        48.00024         0.64756
C         27.92131        50.14868         0.49565
C         30.45944        23.07781        -0.78424
C         29.23065        22.39336        -0.94831
C         30.43831        24.49659        -0.68223
C         29.19744        25.20387        -0.75057
C         30.41503        27.35306        -0.56767
C         29.18902        26.63637        -0.68142
C         30.41224        28.77594        -0.55588
C         29.17632        29.48649        -0.63249
C         30.40449        31.63437        -0.64934
C         29.17910        30.92142        -0.64336
C         30.39837        33.06322        -0.66087
C         29.15075        33.76067        -0.65734
C         30.35982        35.91942        -0.65524
C         29.14458        35.19559        -0.64586
C         30.35654        37.36250        -0.61455
C         29.17471        38.08261        -0.49129
C         30.38643        40.22199        -0.23104
C         29.15202        39.51256        -0.28500
C         30.40803        41.62523         0.07850
C         29.19124        42.31527         0.34586
C         30.40421        44.48839         0.39568
C         29.19183        43.76502         0.48483
C         30.40305        45.90018         0.35623
C         29.16559        46.60754         0.42154
C         30.36924        48.76961         0.20966
C         29.14983        48.04315         0.37990
C         30.32871        50.18515         0.15768
C         29.10321        50.85211         0.32158
C         32.97184        20.28345        -0.94533
C         31.78274        20.95893        -0.95434
C         32.90734        23.06920        -0.43027
C         31.72050        22.37182        -0.71638
C         32.88940        24.50790        -0.31796
C         31.66189        25.21673        -0.49907
C         32.87284        27.35524        -0.30460
C         31.65360        26.63967        -0.45759
C         32.87499        28.78565        -0.32374
C         31.64693        29.49350        -0.46747
C         32.88495        31.61147        -0.54604
C         31.65854        30.91766        -0.56092
C         32.90797        33.05856        -0.96356
C         31.61948        33.80155        -0.69168
C         32.86968        35.93772        -0.63393
C         31.61188        35.20358        -0.67823
C         32.88282        37.34729        -0.67440
C         31.61432        38.10987        -0.97756
C         32.81770        40.25063        -0.48680
C         31.61939        39.54599        -0.49018
C         32.85417        41.65415        -0.19053
C         31.65607        42.31721         0.09722
C         32.91420        44.50552         0.18143
C         31.69164        43.73743         0.59753
C         32.88703        45.92295         0.17414
C         31.64343        46.63530         0.24546
C         32.86542        48.75467         0.05608
C         31.63136        48.05052         0.14636
C         32.87844        50.21427        -0.14807
C         31.55881        50.96532        -0.11943
C         32.81114        53.07015         0.13371
C         31.62881        52.40843         0.17049
C         35.57190        18.94638        -1.25896
C         35.42457        20.22638        -0.64225
C         34.20302        20.93450        -0.61853
C         35.33292        23.05031        -0.00681
C         34.16688        22.35333        -0.30978
C         35.29702        24.49510         0.40889
C         34.08056        25.22978        -0.07953
C         35.32826        27.36641         0.04444
C         34.09398        26.64229        -0.10984
C         35.32974        28.78330        -0.00841
C         34.10003        29.49948        -0.19450
C         35.34198        31.64480        -0.18701
C         34.10480        30.92352        -0.31278
C         35.35437        33.08307        -0.31093
C         34.14550        33.79928        -0.54321
C         35.33439        35.96006        -0.48988
C         34.11592        35.23004        -0.54709
C         35.33729        37.36963        -0.52791
C         34.09523        38.05515        -0.63299
C         35.37438        40.27437        -0.66940
C         34.07461        39.52671        -0.78970
C         35.34518        41.70996        -0.31736
C         34.12463        42.37499        -0.15841
C         35.36272        44.52601        -0.04055
C         34.12595        43.80613         0.00682
C         35.35556        45.94909         0.03740
C         34.11744        46.64715         0.09180
C         35.34981        48.79997         0.15133
C         34.10241        48.07363         0.08798
C         35.31865        50.24636         0.24981
C         34.12981        50.95832         0.10218
C         35.28370        53.14120        -0.06204
C         34.09074        52.39901         0.04604
C         35.32611        54.51199        -0.45125
C         37.98596        18.85391        -0.76350
C         36.77572        18.28898        -1.29887
C         37.93169        20.19160        -0.23703
C         36.62246        20.82161        -0.04949
C         37.86297        23.07362         0.21150
C         36.58435        22.34267         0.26218
C         37.82626        24.53150         0.19836
C         36.59483        25.23218         0.19607
C         37.79128        27.37911         0.26671
C         36.57009        26.64667         0.16640
C         37.78391        28.80569         0.28057
C         36.55773        29.51312         0.11942
C         37.78274        31.65788         0.27618
C         36.55355        30.94352         0.06414
C         37.79090        33.10453         0.13539
C         36.58578        33.77747        -0.20225
C         37.83443        35.97507        -0.21010
C         36.62744        35.20864        -0.66843
C         37.82618        37.38638        -0.24468
C         36.59260        38.11212        -0.43527
C         37.83004        40.24419        -0.25065
C         36.61343        39.50961        -0.42858
C         37.82695        41.67541        -0.22673
C         36.58959        42.40317        -0.21746
C         37.83958        44.54434        -0.07740
C         36.59825        43.82139        -0.10766
C         37.82782        45.96385         0.04638
C         36.58873        46.67506         0.09614
C         37.84285        48.80599         0.58932
C         36.56208        48.09677         0.21082
C         37.85553        50.27676         0.27785
C         36.57610        50.97810         0.46574
C         37.82614        53.15240        -0.13229
C         36.56534        52.49404         0.24266
C         37.79276        54.52468        -0.48406
C         36.51783        55.17617        -0.61606
C         40.54201        16.16051        -1.22100
C         39.34634        16.83381        -1.26466
C         40.34357        18.73488         0.06753
C         39.20644        18.15378        -0.74581
C         40.36773        20.24305         0.08981
C         39.10288        20.91739         0.06196
C         40.34666        23.07358         0.12536
C         39.05348        22.35962         0.18386
C         40.33283        24.57443         0.19672
C         39.03554        25.26806         0.26570
C         40.25188        27.39633         0.59941
C         39.02462        26.67648         0.37696
C         40.24360        28.80592         0.66639
C         39.00978        29.51763         0.47232
C         40.20566        31.65140         0.89537
C         38.97330        30.93809         0.52164
C         40.21491        33.16801         0.74884
C         39.00196        33.83739         0.25071
C         40.25813        35.97580         0.15577
C         39.03294        35.26345         0.05211
C         40.27590        37.39176         0.07781
C         39.04663        38.10886        -0.08020
C         40.28796        40.26300        -0.03963
C         39.05463        39.53545        -0.10539
C         40.28479        41.66101        -0.16869
C         39.06381        42.38675        -0.19795
C         40.30941        44.54474        -0.14683
C         39.07114        43.82845        -0.16206
C         40.30923        45.97196        -0.06770
C         39.07471        46.69046         0.04552
C         40.29918        48.82880         0.01672
C         39.08962        48.09346         0.14487
C         40.29527        50.25716        -0.01528
C         39.03618        50.97630         0.08193
C         40.26549        53.10661        -0.33765
C         39.04052        52.42115        -0.11263
C         40.25825        54.51737        -0.56808
C         39.02658        55.22862        -0.67672
C         40.24930        57.31317        -1.03338
C         39.06119        56.63477        -0.93347
C         42.98696        16.13343        -0.81338
C         41.74010        16.79545        -0.73332
C         42.86650        18.78132         0.15789
C         41.68414        18.11476        -0.22951
C         42.81603        20.19930         0.48743
C         41.56872        20.91896         0.35275
C         42.74457        23.05058         0.82531
C         41.58820        22.35229         0.48528
C         42.74591        24.51463         0.95020
C         41.53232        25.27451         0.69300
C         42.63653        27.39755         1.33807
C         41.46177        26.65065         0.85989
C         42.70117        28.84726         1.09898
C         41.49176        29.53518         0.86199
C         42.71940        31.66687         1.00168
C         41.50335        30.95244         0.88485
C         42.72275        33.11777         0.85877
C         41.52939        33.79818         0.59035
C         42.81370        35.95388         0.42357
C         41.52070        35.20393         0.19753
C         42.69091        37.40692         0.68432
C         41.48879        38.13868         0.25089
C         42.74994        40.27753         0.38762
C         41.52486        39.54198         0.19133
C         42.78963        41.68984         0.17572
C         41.58669        42.36680        -0.44313
C         42.76535        44.54059        -0.11806
C         41.55476        43.84927        -0.17797
C         42.77708        45.97854        -0.12526
C         41.53389        46.69031        -0.09069
C         42.76237        48.82837        -0.21474
C         41.53845        48.11704        -0.10550
C         42.75280        50.25476        -0.28143
C         41.51134        50.96619        -0.19557
C         42.74085        53.09470        -0.46105
C         41.51508        52.39391        -0.32840
C         42.74069        54.52575        -0.58927
C         41.49798        55.22184        -0.68894
C         42.72641        57.32520        -0.97179
C         41.49481        56.62973        -0.89865
C         44.13889        16.75787        -0.36996
C         45.30731        18.72696         0.63051
C         44.10793        18.08367         0.12264
C         45.19088        20.10191         1.14492
C         43.97091        20.88562         0.85495
C         45.17650        22.99890         1.31299
C         43.97692        22.31512         1.05009
C         45.16561        24.45857         1.68783
C         43.90683        25.17777         1.30131
C         45.19627        27.37875         1.40797
C         43.92832        26.63037         1.53961
C         45.18222        28.78841         1.33859
C         43.93832        29.53218         1.22684
C         45.21212        31.65778         1.24255
C         43.95457        30.95590         1.14083
C         45.22720        33.11465         1.21666
C         43.97508        33.83577         0.99052
C         45.19624        35.99693         1.10495
C         43.99043        35.23337         0.93165
C         45.22191        37.35557         0.89305
C         43.98487        38.14433         0.85845
C         45.20342        40.27014         0.62270
C         43.99794        39.59594         0.61073
C         45.21842        41.74841         0.85519
C         43.97195        42.41276         0.32500
C         45.23854        44.50813         0.05405
C         44.02297        43.82644         0.05912
C         45.27000        45.92628        -0.45321
C         43.99048        46.67764        -0.19299
C         45.23676        48.78218        -0.37316
C         44.00642        48.09840        -0.25249
C         45.22020        50.22032        -0.64224
C         43.96763        50.97350        -0.46873
C         45.23623        53.11651        -0.48295
C         43.98532        52.38152        -0.50004
C         45.22009        54.54029        -0.47050
C         43.96268        55.24942        -0.62980
C         43.92483        56.65366        -0.82339
C         47.74305        18.79290         0.95942
C         46.53905        18.09933         0.65405
C         47.76147        20.13466         1.25544
C         46.49427        20.85932         1.45169
C         47.62157        23.07133         1.21644
C         46.44581        22.33559         1.34997
C         47.61550        24.51470         1.13787
C         46.41763        25.22468         1.29860
C         47.66636        27.36690         1.25623
C         46.42091        26.65349         1.31229
C         47.67169        28.79863         1.33562
C         46.42834        29.50169         1.32883
C         47.69520        31.63432         1.56055
C         46.41095        30.93282         1.35334
C         47.70266        33.13713         1.54030
C         46.41905        33.81754         1.30805
C         47.74092        35.98954         1.16738
C         46.44605        35.29894         1.56019
C         47.76078        37.35178         0.90135
C         46.49119        38.04584         0.62722
C         47.75353        40.26705         0.53958
C         46.47217        39.54395         0.46782
C         47.72806        41.69228         0.43341
C         46.50255        42.41106         0.43264
C         47.72407        44.51678         0.18691
C         46.49245        43.80717         0.22915
C         47.70282        45.99817         0.45527
C         46.48891        46.71025        -0.06156
C         47.72794        48.84935        -0.03343
C         46.49153        48.09486        -0.18666
C         47.75239        50.24671        -0.15068
C         46.53712        50.98114        -0.56272
C         47.69120        53.14250        -0.17981
C         46.48095        52.43926        -0.37713
C         47.63877        54.55395        -0.12567
C         46.44029        55.22948        -0.29027
C         50.33362        20.26138         1.06045
C         49.02246        20.89794         1.36573
C         50.09439        23.12513         0.70620
C         48.93383        22.39316         1.25125
C         50.08482        24.50099         0.70034
C         48.85617        25.22604         1.00572
C         50.18855        27.28959         1.22864
C         48.87376        26.61857         1.10719
C         50.19677        28.78171         1.42235
C         48.92285        29.52963         1.32768
C         50.19848        31.67900         1.17162
C         48.96651        30.91936         1.33262
C         50.20252        33.09991         1.13645
C         48.97740        33.85760         1.28348
C         50.26412        36.00947         1.30790
C         48.96922        35.24452         1.20071
C         50.20918        37.42583         0.79386
C         48.98926        38.09957         0.71730
C         50.19699        40.25169         0.39185
C         48.95803        39.53969         0.52657
C         50.18964        41.67419         0.25919
C         48.96151        42.39616         0.27329
C         50.19769        44.54785         0.09353
C         48.95203        43.82622         0.19437
C         50.19717        45.98604         0.04385
C         48.98320        46.71017         0.11845
C         50.21297        48.82261         0.12197
C         48.98239        48.11965         0.09298
C         50.20648        50.28339         0.46943
C         48.94613        50.99841         0.04026
C         50.19925        53.08837        -0.00560
C         48.94863        52.40541        -0.04021
C         51.33765        20.94854         0.50328
C         52.40059        23.11389        -0.30431
C         51.13048        22.33757        -0.05605
C         52.44244        24.52828        -0.12744
C         51.29733        25.23620         0.37528
C         52.58520        27.31839         0.40955
C         51.38823        26.60747         0.67628
C         52.71217        28.74931         0.74761
C         51.48013        29.53095         1.22615
C         52.63209        31.65454         0.65766
C         51.43600        30.97949         0.98759
C         52.63640        33.08702         0.59959
C         51.43369        33.80976         0.87056
C         52.65406        35.93375         0.55517
C         51.46347        35.23201         0.83505
C         52.66126        37.38062         0.47684
C         51.43846        38.10782         0.55084
C         52.64977        40.22725         0.16716
C         51.42468        39.52647         0.35655
C         52.62185        41.64663         0.08022
C         51.42632        42.38453         0.12095
C         52.62743        44.56703        -0.17749
C         51.42323        43.83830         0.01617
C         52.65106        45.98518        -0.22841
C         51.42437        46.70476        -0.08123
C         52.69242        48.84390        -0.01236
C         51.43706        48.12765         0.01029
C         52.70205        50.27401         0.03081
C         51.48126        51.00479         0.10688
C         51.41255        52.40786         0.00475
C         54.67980        23.14881        -1.14193
C         53.51181        22.45535        -0.83428
C         54.76890        24.54393        -0.96217
C         53.62438        25.25065        -0.45987
C         54.84213        27.41508        -0.59690
C         53.68122        26.67206        -0.22863
C         54.92834        28.81162        -0.38212
C         53.82825        29.52028         0.18710
C         55.02454        31.64668        -0.04473
C         53.83122        30.92656         0.29163
C         55.05468        33.06529         0.04164
C         53.84934        33.79011         0.32604
C         55.09499        35.91920         0.10254
C         53.86766        35.21371         0.31964
C         55.11068        37.34789         0.08115
C         53.88344        38.07202         0.23537
C         55.11658        40.15718        -0.17384
C         53.88960        39.49484         0.10720
C         55.08543        41.58758        -0.49481
C         53.90280        42.36025        -0.02345
C         55.11936        44.50595        -0.74815
C         53.90838        43.84253        -0.18214
C         55.11689        46.02256        -0.70985
C         53.87812        46.71611        -0.33003
C         55.18649        48.81782        -0.21658
C         53.91256        48.12006        -0.18035
C         55.15098        50.24559        -0.12336
C         53.97101        50.93766        -0.03504
C         57.18494        24.59028        -1.55127
C         55.98259        25.25379        -1.25873
C         57.25936        27.42489        -1.30586
C         55.91747        26.75005        -1.41610
C         57.32847        28.81415        -1.05069
C         56.14261        29.53346        -0.66256
C         57.44421        31.62963        -0.60515
C         56.20030        30.92803        -0.43973
C         57.48681        33.04673        -0.43594
C         56.27957        33.77089        -0.16706
C         57.54864        35.89711        -0.24632
C         56.30583        35.19417        -0.10427
C         57.57042        37.32475        -0.22487
C         56.34053        38.04628        -0.11746
C         57.59901        40.19081        -0.38148
C         56.34457        39.46888        -0.24874
C         57.63582        41.60287        -0.48999
C         56.38730        42.34210        -0.67806
C         57.60780        44.50931        -0.60949
C         56.40130        43.80687        -0.61759
C         57.60106        45.95845        -0.63395
C         56.41816        46.69522        -0.56809
C         57.69660        48.75685        -0.12060
C         56.41125        48.11457        -0.32568
C         58.37140        25.27999        -1.77513
C         59.67900        27.38172        -1.67672
C         58.43348        26.69679        -1.60616
C         59.74537        28.73942        -1.46054
C         58.58204        29.49071        -1.13654
C         59.85731        31.62990        -1.00391
C         58.63445        30.91281        -0.91396
C         59.90245        32.99354        -0.82180
C         58.72624        33.74074        -0.55075
C         59.98323        35.89740        -0.48151
C         58.76251        35.17346        -0.41846
C         60.00794        37.27307        -0.41835
C         58.81028        38.02963        -0.31812
C         60.04367        40.21137        -0.30412
C         58.82857        39.46801        -0.32776
C         60.06011        41.58757        -0.31400
C         58.85212        42.34408        -0.41313
C         60.04986        44.54303        -0.23537
C         58.84706        43.77958        -0.45821
C         60.08653        45.89603        -0.33013
C         58.90940        46.68672        -0.82350
C         58.86278        48.09005        -0.27922
O         54.94150        45.26106        -1.97577
O         40.52685        23.88156        -1.10481
O         55.55237        41.88553        -1.84216
O         45.98797        50.56414        -1.86259
O         40.02726        32.52281         2.06407
O         36.45492        21.33891         1.31472
O         27.10864        37.90206        -1.77244
O         50.29817        27.88192         2.57452
O         45.66455        20.29962         2.51637
O         49.15035        21.73291         2.57529
O         46.45668        38.65035        -0.72686
O         47.72700        32.40950         2.83415
O         52.50218        29.10019         2.16547
O         43.09567        27.03459         2.68462
O         42.42344        35.55033        -0.92468
O         54.21575        43.22479         1.13312
O         43.12143        37.79574         2.02591
O         34.76985        40.00193        -1.99528
O         36.57963        51.90613         1.59918
O         32.19339        50.61074        -1.39735
O         26.91192        43.60941         2.57774
H         26.91590        44.52580         2.92776
O         40.04081        18.33786         1.46428
H         40.02463        17.35721         1.48787
O         26.51155        33.78305        -2.44277
H         27.21058        34.37925        -2.78778
O         35.15177        24.44893         1.88524
H         34.42529        23.82219         2.09057
O         32.99522        33.00529        -2.44896
H         33.12157        33.92633        -2.76475
O         50.17284        50.31403         1.96036
H         50.19468        51.25948         2.22318
O         45.17133        24.47392         3.16365
H         45.93313        23.93167         3.46194
O         55.49332        26.96047        -2.83593
H         56.19887        26.57483        -3.39903
O         36.79169        35.10342        -2.14757
H         36.81670        36.01952        -2.50010
O         45.18013        41.92147         2.33284
H         44.34791        41.51060         2.65236
O         45.35394        45.79482        -1.93562
H         45.35039        46.70401        -2.30668
O         31.82045        43.60750         2.07280
H         31.84135        44.51589         2.44310
O         47.59395        46.09105         1.93440
H         48.40160        45.68252         2.31366
O         50.46655        36.16970         2.77071
H         50.50325        35.26903         3.15943
O         37.86567        48.72754         2.07246
H         38.57549        49.32755         2.38669
O         59.09911        46.82096        -2.28384
H         58.26775        47.19148        -2.65009
O         41.77225        42.23563        -1.90216
H         42.61184        42.68916        -2.13170
O         31.57544        38.19176        -2.44804
H         30.76036        38.67828        -2.69596
O         50.51614        22.12383        -1.38487
H         50.53450        22.98223        -1.85927
O         46.41139        35.40724         3.03248
H         46.96223        34.68220         3.40153
H         22.07907        26.75259        -0.68032
H         22.04980        29.19988        -0.44056
H         22.08265        31.05287         0.02572
H         22.09494        33.46873         0.23348
H         22.11924        35.31508         0.44893
H         22.12668        37.71016         0.82369
H         22.14686        39.60185         1.01231
H         22.14989        42.01975         1.27966
H         22.07021        43.91126         0.92223
H         22.05699        46.37472         0.86260
H         25.45459        23.41646        -1.01436
H         23.32685        24.63825        -0.90367
H         25.37536        49.77171         0.64213
H         23.27063        48.51932         0.77079
H         27.10518        22.49282        -1.09870
H         26.98940        50.71666         0.60722
H         29.21161        21.29884        -1.02786
H         29.06268        51.94849         0.28522
H         32.97037        19.20406        -1.14758
H         30.86473        20.40217        -1.18153
H         32.81191        54.15769         0.29417
H         30.70647        52.96655         0.38189
H         34.69709        18.46523        -1.71748
H         34.38672        55.05023        -0.63920
H         36.81085        17.29661        -1.76755
H         36.48437        56.23347        -0.90987
H         40.61557        15.14027        -1.62361
H         38.48026        16.33817        -1.72495
H         40.25421        58.39815        -1.21202
H         38.12232        57.19515        -1.03289
H         43.03021        15.11071        -1.21411
H         42.72008        58.41173        -1.13997
H         45.08853        16.20882        -0.41401
H         44.86077        57.22498        -0.88167
H         48.69018        18.24381         0.86337
H         46.63167        17.05138         0.33954
H         48.55398        55.13880         0.03462
H         46.45079        56.32683        -0.25200
H         50.50169        19.23451         1.42050
H         50.22286        54.18251        -0.09119
H         52.31562        20.46434         0.36622
H         52.33271        52.99692        -0.11500
H         55.52840        22.58751        -1.55367
H         53.47292        21.37317        -1.01899
H         56.09068        50.81294        -0.16052
H         54.00928        52.03452         0.00835
H         57.21654        23.49175        -1.56146
H         57.72106        49.80139         0.22145
H         59.29577        24.72708        -1.99271
H         60.58992        26.81193        -1.90974
H         60.72086        29.23740        -1.53442
H         60.79263        31.10036        -1.22609
H         60.87158        33.50130        -0.90898
H         60.93639        35.36264        -0.58327
H         60.97811        37.78328        -0.47856
H         61.00421        39.68172        -0.25040
H         61.02916        42.10232        -0.27471
H         60.96497        44.01212         0.06394
H         61.02366        46.43581        -0.12692
H         59.81864        48.60640        -0.10298
