         280
 CSIRO Nanostructure Databank - Neutral Graphene Oxide Data Set
C         30.17415        31.59521         1.09565
C         30.53976        32.83284         1.06749
C         30.52472        35.93688         1.07844
C         30.68889        37.15533         1.32258
C         31.20407        39.87976         2.80855
C         31.45408        40.99856         3.34333
C         32.71354        28.87934         0.99880
C         31.59860        29.41915         1.16870
C         33.00657        31.72516         1.02793
C         31.14041        30.69384         1.58587
C         32.78862        32.96459         0.45931
C         31.54875        33.68935         0.63826
C         32.70105        35.89180         0.14938
C         31.55920        35.12222         0.56189
C         32.79384        37.31629         0.30018
C         31.74286        38.03706         1.03397
C         32.60612        40.37052         1.05954
C         31.78290        39.35792         1.62112
C         33.07583        41.52175         1.69502
C         32.37901        41.97526         2.88886
C         33.57875        43.91443         2.56223
C         32.72129        43.29578         3.29951
C         35.47491        27.33738        -0.41235
C         35.25520        28.56331         0.44207
C         33.92700        29.32513         0.21414
C         35.24906        31.46831        -0.14056
C         34.17592        30.82208         0.77715
C         35.22127        33.01413         0.03453
C         33.84001        33.57654        -0.45531
C         35.12723        35.82406        -0.77435
C         33.82243        35.12597        -0.48369
C         35.18448        37.28317        -0.53423
C         34.03291        37.97813        -0.18689
C         35.25515        40.19969        -0.25314
C         34.12233        39.42735        -0.26290
C         35.10047        41.72458        -0.02368
C         34.45434        42.11788         1.34150
C         35.73475        44.44615         1.29846
C         34.45159        43.70526         1.52993
C         35.81821        45.93465         1.08247
C         37.87177        27.13809         0.12321
C         36.53214        26.69375        -0.45558
C         37.84077        28.67574        -0.26038
C         36.56855        29.40414         0.20897
C         37.80377        31.57108         0.17776
C         36.55824        30.76162         0.15848
C         37.71359        33.04836        -0.12496
C         36.44473        33.63368        -0.58533
C         37.71656        35.82873        -1.12582
C         36.41284        35.05098        -0.97863
C         37.70372        37.31414        -1.03909
C         36.40184        38.01118        -0.97449
C         37.77500        40.19312        -0.72217
C         36.46239        39.54896        -0.79978
C         37.76273        41.58211        -0.17790
C         36.50288        42.41791        -0.15460
C         37.97843        44.56975         0.10485
C         36.66087        43.87389         0.20002
C         38.09947        46.10194        -0.01978
C         36.89773        46.49858         0.82096
C         40.61145        24.55851         0.19819
C         39.51856        25.15527         0.30831
C         40.44188        27.24635        -0.54601
C         39.16267        26.46070        -0.27915
C         40.35443        28.77639        -0.74039
C         39.19760        29.33518         0.14765
C         40.35297        31.63360        -0.25550
C         39.13891        30.87146         0.13768
C         40.29445        33.03858        -0.36681
C         39.01725        33.78685        -0.31778
C         40.19400        35.85169        -1.00047
C         39.01511        35.16071        -0.86571
C         40.15432        37.28211        -1.46909
C         38.88390        38.02040        -1.11723
C         40.24363        40.14773        -0.93090
C         38.93877        39.46213        -0.92650
C         40.13674        41.65654        -0.93228
C         39.08289        42.25788         0.01585
C         40.46749        44.39752         0.06952
C         39.16277        43.75314         0.43495
C         40.77074        45.81717         0.50363
C         39.45449        46.68695         0.40656
C         40.71194        48.97824         0.68057
C         39.82969        47.96006         0.49710
C         43.16870        24.69609        -0.23705
C         41.89555        25.11937        -0.00364
C         43.00215        27.43360        -0.63521
C         41.79791        26.70574        -0.01883
C         42.90231        28.82491        -0.74091
C         41.65953        29.52207        -0.50607
C         42.80815        31.74456        -0.76457
C         41.58227        30.91468        -0.45415
C         42.73954        33.09981        -0.07582
C         41.48820        33.82325        -0.50503
C         42.69598        35.98705        -0.70148
C         41.47187        35.19119        -0.78954
C         42.65835        37.35602        -0.73709
C         41.48536        38.03739        -1.38426
C         42.79817        40.18616        -1.46517
C         41.43831        39.52200        -1.14791
C         42.79025        41.70884        -1.28274
C         41.50294        42.32967        -0.83739
C         43.52635        44.57878        -0.27564
C         41.52074        43.55853        -0.03914
C         43.21346        45.97121        -0.52813
C         41.91159        46.40281        -0.38574
C         43.18862        48.83821        -0.26095
C         41.75650        48.69019        -0.20304
C         44.18134        25.40887        -0.58855
C         45.46204        27.44276        -1.49508
C         44.27245        26.76051        -0.85055
C         45.47890        28.99316        -1.18547
C         44.13957        29.63122        -0.94427
C         45.24460        31.72543        -0.20130
C         44.10103        31.02718        -0.46821
C         45.19490        33.18723        -0.16783
C         44.02117        33.85627        -0.28007
C         45.16408        36.04651        -0.05575
C         44.04159        35.29385        -0.72508
C         45.05135        37.48738         0.16570
C         43.72224        38.19343        -0.04369
C         45.05143        40.27027        -0.28082
C         43.93064        39.58770        -0.62105
C         45.29417        41.72689        -0.53702
C         44.19435        42.36536        -1.37585
C         45.56889        44.49945        -1.52328
C         44.31285        43.85694        -1.12591
C         45.67300        45.98072        -0.95901
C         44.35742        46.77543        -1.21490
C         44.17192        48.14085        -0.55531
C         47.81154        27.66581        -0.80583
C         46.80641        26.97953        -1.00185
C         47.96395        29.07647        -0.53827
C         46.68276        29.71984        -0.66423
C         47.66311        31.79370         0.24805
C         46.55754        31.07037        -0.19217
C         47.44790        33.19100         0.81317
C         46.50352        33.93628        -0.14345
C         47.33483        36.04681         1.13409
C         46.30844        35.37949         0.24672
C         47.48840        37.53450         0.77447
C         46.14461        38.19920         0.55667
C         47.42463        40.44141         0.71577
C         46.04829        39.69977         0.70772
C         47.77172        41.57230        -0.20178
C         46.69597        42.03410        -1.18835
C         48.12089        44.18949        -1.31919
C         46.80436        43.55898        -1.52584
C         47.99564        45.58143        -1.35002
C         47.03616        46.40584        -1.49535
C         50.42405        29.31225         0.04073
C         49.11494        29.79070        -0.23034
C         49.96655        31.74832         1.22877
C         49.05863        31.29034         0.04931
C         49.90183        33.21077         1.52335
C         48.72275        33.98724         1.06389
C         49.91597        36.17995         1.41753
C         48.67918        35.33918         1.15709
C         49.60849        37.49688         2.11893
C         48.33912        38.26077         1.83503
C         49.96204        40.21729         1.17196
C         48.58096        39.72068         1.37236
C         50.16096        41.46467         0.51056
C         49.04534        42.08819        -0.22761
C         50.55368        43.96484        -0.64377
C         49.31330        43.30648        -1.17426
C         51.44715        29.81783         0.55579
C         52.36933        31.91110         1.85274
C         51.44532        30.76626         1.68632
C         52.17523        33.07012         2.26160
C         51.08158        33.98377         2.02735
C         51.93035        36.29509         2.65901
C         51.03233        35.33888         2.10880
C         51.90119        37.48181         3.01509
C         50.67928        38.35622         2.77822
C         52.21738        40.18990         1.72125
C         50.99805        39.52832         1.86500
C         52.46146        41.28802         1.13445
C         51.47846        42.07468         0.52678
C         51.50810        43.32547        -0.16818
O         41.56417        47.55335        -1.10049
O         44.77126        29.65078        -2.30532
O         41.63162        37.84858        -2.87826
O         36.30781        43.46956        -1.17058
O         38.53341        41.48995         1.10329
O         40.28044        37.25966        -2.96194
O         32.91871        40.12142        -0.26926
O         38.57063        31.33702         1.41298
O         46.16242        44.08564        -2.75695
O         32.27221        31.37864         2.20291
O         38.32120        33.82101         1.00843
O         39.72897        26.56126        -1.61208
O         49.36593        32.12813         2.46569
O         47.80783        40.71380         2.11106
O         36.18627        38.92015        -2.09851
O         42.70578        43.88621         0.59238
O         41.98703        42.47897        -2.24365
O         34.12599        35.57819        -1.84363
O         37.01022        35.31258        -2.31155
O         49.57449        42.79147        -2.52785
O         44.51228        42.14587        -2.76442
H         43.81344        42.57979        -3.29996
O         35.35713        41.60388         2.32948
H         35.02556        41.84035         3.22189
O         43.15219        38.42299         1.28760
H         43.82779        38.93196         1.80477
O         37.73282        28.76005        -1.69197
H         36.85085        28.41825        -1.95618
O         46.78211        35.91141         2.46716
H         47.07795        36.67624         3.01941
O         39.55757        42.00250        -2.22040
H         40.29203        42.04424        -2.87660
O         35.30367        28.10816         1.79995
H         35.15454        28.90802         2.36667
O         51.17233        30.13166         2.87246
H         51.09632        30.79274         3.59061
O         48.21574        37.68247        -0.46184
H         47.79180        37.12634        -1.14856
O         34.77781        30.64358         2.08507
H         34.08910        30.88102         2.74993
O         42.61564        32.82737         1.34492
H         42.64108        33.67738         1.83147
O         41.78768        27.08969         1.36970
H         42.63573        26.82544         1.78300
O         45.76782        45.89649         0.45254
H         46.59517        45.43987         0.71063
O         35.09621        31.15376        -1.52573
H         34.35386        31.68507        -1.91240
O         46.75088        33.04248         2.06742
H         47.39438        32.66640         2.71009
O         44.40208        35.23302        -2.15300
H         43.67879        34.76459        -2.62469
O         44.14719        46.91804        -2.59876
H         43.29756        47.38742        -2.74087
O         37.76670        26.94750         1.50693
H         36.88389        27.28401         1.81653
O         36.52261        44.18507         2.50359
H         36.17754        44.75877         3.22119
O         37.88644        46.49637        -1.37042
H         37.04306        46.10562        -1.68217
O         35.25653        33.34171         1.45122
H         36.16492        33.17232         1.78734
O         50.49657        36.48173         0.11240
H         51.29735        37.03019         0.25599
O         42.80487        32.00183        -2.19488
H         42.98984        31.15675        -2.65968
O         41.22951        45.83133         1.85036
H         40.66594        45.19888         2.35428
O         39.25539        43.77044         1.91558
H         38.32949        43.74488         2.27354
O         50.15033        38.88013         4.00319
H         50.79658        39.51299         4.38109
O         34.22366        42.24707        -1.01450
H         34.63708        42.15173        -1.89742
O         33.51968        33.16202        -1.79466
H         33.78913        33.90218        -2.39683
O         45.30321        42.39753         0.74731
H         45.29711        41.72674         1.47414
O         47.11342        33.90215        -1.46333
H         46.46239        34.30000        -2.08748
O         46.91298        41.26205        -2.36346
H         46.23171        41.52853        -3.02609
O         33.56281        29.31285        -1.13943
H         33.88514        28.47717        -1.54335
O         50.65055        41.83867        -2.43618
H         51.43747        42.36108        -2.72869
O         49.58707        32.00480        -1.11218
H         48.86854        32.55530        -1.50102
O         47.57244        38.37047         3.07782
H         48.21885        38.67169         3.76444
O         45.37188        27.24206        -2.89520
H         45.21278        28.11328        -3.32462
O         40.13561        29.04687        -2.13254
H         39.64241        28.28420        -2.51799
O         39.52441        28.93457         1.47930
H         39.14196        29.59937         2.09675
O         43.11499        39.87631        -2.83277
H         42.35244        40.12295        -3.39613
O         45.43507        39.93553         2.02032
H         46.11824        39.66054         2.68811
