         236
 CSIRO Nanostructure Databank - Neutral Graphene Oxide Data Set
C        -10.97244         0.91902        -0.72597
C         -9.78622         1.72250        -0.45644
C         -8.49442         1.01247        -0.33611
C         -7.43935         1.67334         0.47543
C         -6.27994         0.85491         0.91269
C         -4.97667         1.57540         1.10458
C         -3.72305         0.77934         0.96833
C         -2.51817         1.50135         0.45697
C         -1.41945         0.67991        -0.19061
C         -0.12355         1.47081        -0.16266
C          1.11555         0.79612         0.26056
C          2.41831         1.44826         0.11218
C          3.64506         0.75079         0.19689
C          4.89790         1.45069        -0.09783
C          6.13002         0.68203        -0.17889
C          7.39306         1.34883        -0.52171
C          8.59033         0.69442        -0.48103
C          9.87052         1.36286        -0.93744
C         11.11403         0.60728        -0.51091
C         -9.82554         3.05626        -0.16056
C         -8.63993         3.79658         0.25389
C         -7.44375         3.03420         0.62854
C         -6.24182         3.74035         1.29100
C         -4.95625         3.04396         0.86893
C         -3.85560         3.69589         0.39037
C         -2.65992         2.91186        -0.03890
C         -1.42575         3.58548        -0.57800
C         -0.12122         2.85856        -0.38849
C          1.09534         3.57994        -0.34675
C          2.36061         2.90585         0.01930
C          3.69548         3.61334        -0.14399
C          4.89814         2.80921        -0.37878
C          6.10270         3.52565        -0.86619
C          7.40502         2.75652        -1.08421
C          8.65126         3.52488        -0.63034
C          9.82589         2.83028        -0.55395
C         -8.67804         5.16565         0.33319
C         -7.49485         5.98169         0.66667
C         -6.20705         5.25376         1.02163
C         -4.95016         5.91890         0.62203
C         -3.78781         5.16009         0.30325
C         -2.58668         5.81323        -0.03612
C         -1.48540         5.10159        -0.82195
C         -0.12370         5.81459        -0.74751
C          1.14529         5.00547        -0.71938
C          2.44248         5.77988        -0.60140
C          3.71067         5.06236        -0.38645
C          4.89502         5.74466        -0.34195
C          6.14274         5.01986        -0.67597
C          7.43460         5.70416        -0.43928
C          8.59702         4.95549        -0.40130
C         -7.40800         7.37997         0.21142
C         -6.21784         8.05408         0.26514
C         -4.95882         7.32080         0.38314
C         -3.74758         7.98471         0.13307
C         -2.53066         7.24830         0.03043
C         -1.29920         7.95749         0.00232
C         -0.04662         7.26097        -0.32168
C          1.24815         7.86190         0.05417
C          2.42897         7.21013        -0.20780
C          3.70989         7.86715        -0.00669
C          4.91171         7.17822        -0.18326
C          6.19575         7.84067        -0.09504
C          7.38549         7.11966        -0.19203
C         -6.14979         9.50733         0.13784
C         -4.98463        10.16604        -0.00744
C         -3.70108         9.43601        -0.28147
C         -2.45261        10.11544         0.20304
C         -1.24470         9.38909         0.23119
C          0.00634        10.00485         0.45169
C          1.24324         9.20264         0.74612
C          2.53922         9.94840         0.55081
C          3.71680         9.29094         0.27917
C          5.00792         9.95637         0.28755
C          6.17567         9.27060         0.12565
C        -10.93074        -0.40254        -1.01277
C         -9.64170        -1.12634        -1.35353
C         -8.43771        -0.44128        -0.68322
C         -7.45342        -1.30024         0.04304
C         -6.29903        -0.64419         0.74664
C         -5.01255        -1.39589         0.76860
C         -3.79758        -0.69406         0.81052
C         -2.55803        -1.40444         0.67114
C         -1.36126        -0.71277         0.39634
C         -0.10099        -1.45045         0.07013
C          1.11066        -0.66329         0.54892
C          2.42407        -1.37618         0.72274
C          3.67811        -0.65907         0.44038
C          4.88990        -1.42403         0.32155
C          6.10710        -0.68822         0.02488
C          7.34163        -1.45564        -0.24898
C          8.62339        -0.72597        -0.07687
C          9.90417        -1.50158        -0.00060
C         11.14256        -0.70484        -0.21972
C         -9.66063        -2.62417        -1.16610
C         -8.52857        -3.37665        -0.81453
C         -7.39092        -2.73454        -0.25909
C         -6.32453        -3.50904         0.38500
C         -5.03427        -2.81238         0.62643
C         -3.81249        -3.54494         0.63739
C         -2.59939        -2.83958         0.70847
C         -1.33260        -3.57979         0.81672
C         -0.04674        -2.86222         0.60998
C          1.22273        -3.61176         0.24194
C          2.42529        -2.86641         0.78553
C          3.71473        -3.66196         0.77565
C          4.92294        -2.82356         0.43234
C          6.20154        -3.63488         0.47449
C          7.37381        -2.93074        -0.16107
C          8.66349        -3.68370        -0.15432
C          9.86155        -2.97329        -0.15583
C         -8.45713        -4.80344        -1.04919
C         -7.40925        -5.61819        -0.63545
C         -6.36008        -5.03271         0.27576
C         -5.04050        -5.71156         0.48277
C         -3.81767        -5.01141         0.57624
C         -2.61161        -5.77489         0.65781
C         -1.33451        -5.03874         0.53936
C         -0.04498        -5.76285         0.41889
C          1.27650        -5.07392         0.73260
C          2.47494        -5.71273         0.01430
C          3.59244        -4.92219        -0.08261
C          4.83143        -5.33621        -0.71489
C          6.05881        -4.96313        -0.25057
C          7.27923        -5.76568        -0.43314
C          8.54636        -5.09186        -0.29242
C         -7.30256        -6.93701        -1.21412
C         -6.54362        -7.96937        -0.64940
C         -4.99302        -7.10735         0.56596
C         -3.81258        -7.88154         0.50147
C         -2.58479        -7.17899         0.61735
C         -1.31874        -7.98123         0.89788
C         -0.02406        -7.24652         0.56541
C          1.16664        -7.90637        -0.03305
C          2.32132        -7.10004        -0.64029
C          3.58442        -7.96188        -0.49488
C          4.76276        -7.53025        -1.00358
C          6.12115        -8.14904        -0.83365
C          7.25556        -7.15384        -0.57451
C         -5.98593        -9.13422        -1.22247
C         -4.86522        -9.80902        -0.67666
C         -3.86106        -9.28242         0.14405
C         -2.66221       -10.12524         0.52375
C         -1.33372        -9.39093         0.32573
C         -0.21568       -10.02493        -0.08431
C          1.11913        -9.37596        -0.42053
C          2.37027        -9.99162         0.20301
C          3.53906        -9.28897         0.13269
C          4.84219        -9.80442         0.57020
C          6.01960        -9.26280         0.19099
O          3.07651         3.46848         1.20784
O          7.53508         2.57767        -2.52823
H          7.14312         3.38621        -2.94085
O          9.21472        -1.01079         1.23879
O          7.15800        -2.29444        -1.46129
O         -2.69888       -11.36760        -0.15792
H         -2.06733       -11.98134         0.26604
O          0.87147         0.22111         1.66550
O          3.93278        -4.14317         2.14290
H          3.40282        -3.54914         2.72869
O          1.93797         5.33634        -1.92463
O         -0.70110        -5.31906        -0.80926
O         -7.41956        -1.16716         1.52590
O         -7.83517         0.52992        -1.60509
O         -6.20738        -7.77793         0.71237
O         -2.38803         2.94508        -1.48514
O          1.22219        -9.50987        -1.86066
H          1.58782        -8.67194        -2.23574
O         -1.93792         5.24112        -2.19232
H         -1.50741         6.05197        -2.55476
O         -1.33708        -8.15123         2.34573
H         -0.40811        -8.32926         2.61964
O         -6.98484         5.92687         2.06684
O          9.91813         1.30983        -2.39512
H          9.09292         1.75199        -2.72670
O          6.57104        -3.83984         1.85857
H          5.74096        -4.10211         2.33273
O          1.16847         8.89250         2.20353
H          1.20767         9.74581         2.68601
O         -3.57807         9.42873        -1.76288
H         -2.74756         8.95166        -1.97992
O          5.91514         4.42055        -2.02294
O         -2.66178         1.27720         1.87362
O          1.45990        -5.08692         2.15219
H          1.56390        -6.02627         2.42562
O          2.04067        -6.90443        -2.04701
H          2.84072        -6.47997        -2.43711
O         -6.85157        -4.37749         1.47189
O          1.08289        -7.70397         1.42231
O         -1.78231         0.44725        -1.60169
H         -1.94175         1.34347        -2.00505
O         -0.50818        -3.10253         1.95111
O          4.75565        -6.32130        -1.72845
O         -6.36418         3.57171         2.71532
H         -6.86891         4.34839         3.05210
O         -0.05027         6.85038        -1.77207
O         -5.78932         1.18282         2.24894
O          2.31390        -2.13181         2.02147
O         -9.50401        -0.96564        -2.80063
H         -8.91776        -0.18140        -2.93553
O          6.48700        -8.79140        -2.09791
H          6.47515        -8.09554        -2.78914
O         -0.01038        -1.55115        -1.37923
H         -0.60235        -0.86308        -1.77934
O          1.39609        -3.62501        -1.18454
H          0.61278        -4.07920        -1.57663
H         12.10757        -1.20357        -0.03528
H         12.06749         1.14932        -0.61412
H         10.76369         3.35561        -0.31152
H          9.54829         5.46308        -0.17500
H          8.34040         7.65420        -0.06930
H          7.13615         9.80573         0.16688
H          5.02963        11.04247         0.46236
H          2.55752        11.02517         0.78416
H          0.03842        11.09449         0.60879
H         -2.43506        11.20989         0.31353
H         -4.97038        11.26512        -0.05909
H         -7.09290        10.06656         0.23512
H         -8.34079         7.91292        -0.02764
H         -9.59344         5.69585         0.02751
H        -10.77722         3.60559        -0.22597
H        -11.94703         1.42169        -0.62429
H        -11.87299        -0.94669        -1.17793
H        -10.53598        -3.15353        -1.57256
H         -9.25593        -5.25189        -1.65904
H         -7.82119        -7.11471        -2.16896
H         -6.41675        -9.52889        -2.15521
H         -4.66032       -10.81441        -1.07871
H         -2.74559       -10.31721         1.64045
H         -0.30272       -11.07426        -0.41352
H          2.35146       -11.01035         0.61851
H          4.84049       -10.67732         1.24143
H          6.96180        -9.70521         0.54792
H          8.24468        -7.64221        -0.62040
H          9.46415        -5.69922        -0.33805
H         10.81609        -3.51132        -0.26698
