         668
 CSIRO Nanostructure Databank - Neutral Graphene Oxide Data Set
C          5.87212        31.69217         0.93354
C          5.84580        33.05001         0.85201
C          8.38711        27.39285         1.07055
C          8.34419        28.78125         0.81215
C          7.14514        29.53118         0.91082
C          8.26704        31.65459         0.41640
C          7.10074        30.93910         0.74955
C          8.30357        33.08934         0.45109
C          7.05477        33.83519         0.65667
C          8.26819        36.07339         0.67555
C          7.02759        35.20403         0.59533
C          8.40709        37.15837        -0.43875
C         10.89858        23.14197         1.32277
C         10.87468        24.53452         1.14063
C          9.64494        25.28624         1.24118
C         10.83429        27.29567         0.38255
C          9.58347        26.64517         0.95194
C         10.79418        28.80901         0.37735
C          9.57681        29.46542         0.46645
C         10.75917        31.63135        -0.18196
C          9.48966        30.89331         0.11402
C         10.74947        33.15206        -0.24753
C          9.50027        33.78193         0.34885
C         10.82887        35.95071         0.59734
C          9.53832        35.22243         0.68799
C         10.83204        37.40607         0.33547
C          9.66195        38.00423        -0.23684
C         10.88782        40.11056        -0.42627
C          9.72556        39.31368        -0.68124
C         10.99683        41.47171        -0.79274
C         13.30469        18.79545         1.53728
C         13.27732        20.20906         1.36662
C         12.12184        21.01294         1.57070
C         13.32413        23.10858         0.95803
C         12.11149        22.40732         1.26066
C         13.31687        24.51805         0.88508
C         12.10940        25.22674         0.95689
C         13.34385        27.43207         0.58297
C         12.09066        26.73560         1.06666
C         13.27480        28.80120         0.28366
C         12.04036        29.51124         0.17883
C         13.24274        31.65876        -0.19200
C         12.05174        30.93267        -0.02033
C         13.28047        33.07929        -0.11696
C         12.02431        33.75152         0.38253
C         13.35011        35.91609         0.51913
C         12.06647        35.25807         0.08256
C         13.27556        37.32703         1.09438
C         12.01695        38.10530         0.56498
C         12.93229        40.41052         0.83048
C         11.96115        39.51739         0.32354
C         13.20161        41.67089         0.30706
C         12.14963        42.25058        -0.49531
C         13.35069        44.39893        -0.38849
C         12.26383        43.61102        -0.85301
C         13.38820        45.77410        -0.67902
C         15.67305        14.48934         0.71158
C         15.69135        15.88630         0.98765
C         14.49619        16.60240         1.29270
C         15.60606        18.68894         0.70224
C         14.47084        18.02352         1.27228
C         15.38821        19.99159         0.26305
C         14.41054        20.85148         0.77517
C         15.77876        23.05389         0.23634
C         14.63105        22.34292         0.99267
C         15.77372        24.54498         0.31521
C         14.62643        25.27700         0.98225
C         15.78231        27.39002         0.20313
C         14.58001        26.73467         0.55301
C         15.80244        28.81142        -0.00019
C         14.55540        29.60752         0.31719
C         15.76125        31.64773        -0.50595
C         14.47205        30.85976        -0.54149
C         15.69102        33.12660        -0.63240
C         14.45333        33.83016        -0.22622
C         15.80449        35.93148         0.22937
C         14.51561        35.24619         0.16793
C         15.81106        37.35917         0.51161
C         14.61423        38.03122         0.88361
C         15.81154        40.21214         0.82080
C         14.74744        39.37688         1.22110
C         15.72234        41.66206         0.80338
C         14.44961        42.37524         0.57452
C         15.61117        44.54858         0.72241
C         14.44905        43.75192         0.30817
C         15.64115        46.03686         0.51648
C         14.41604        46.68268        -0.18485
C         15.70440        48.81370        -0.33955
C         14.58868        48.03047        -0.70123
C         15.72836        50.18810        -0.64683
C         18.17365        10.35166        -0.65277
C         18.19245        11.66503         0.08915
C         16.89870        12.44030        -0.00305
C         18.14793        14.43114         0.67115
C         16.85173        13.77640         0.36629
C         18.17147        15.90496         1.12048
C         16.92633        16.60906         0.92906
C         18.24395        18.81203         0.73568
C         16.94175        18.01615         0.37149
C         18.32095        20.27971         0.61016
C         17.29438        21.05463         0.08218
C         18.30026        23.16058         0.59309
C         17.14460        22.43891         0.27790
C         18.28788        24.59947         0.48077
C         17.06840        25.27465         0.31421
C         18.27416        27.35981        -0.03543
C         17.04750        26.67742         0.15642
C         18.26462        28.77495        -0.55772
C         16.96326        29.50306        -0.29699
C         18.24459        31.63396        -0.82961
C         16.94073        30.94255        -0.49379
C         18.21322        33.06877        -0.33036
C         16.98910        33.88879        -0.55906
C         18.27110        35.96062         0.03201
C         17.00631        35.28283        -0.05029
C         18.32887        37.39594         0.49056
C         17.00779        38.10471         0.42968
C         18.21336        40.26859         0.23716
C         17.01702        39.52847         0.47881
C         18.20318        41.68798         0.43343
C         16.94666        42.35632         0.72915
C         18.19801        44.60202         0.90944
C         16.92245        43.81453         0.92781
C         18.16560        46.05766         0.59034
C         16.93620        46.74263         0.39800
C         18.14983        48.83867         0.07945
C         16.92077        48.13938         0.13175
C         18.15910        50.31831        -0.01420
C         16.86878        51.04001        -0.34039
C         18.24648        53.18182        -0.53231
C         17.00187        52.42225        -0.97057
C         18.24224        54.57241        -0.55913
C         20.65678         6.36102        -2.19681
C         20.64071         7.71089        -1.76900
C         19.41485         8.36638        -1.44762
C         20.63938        10.41771        -0.72762
C         19.35660         9.69253        -0.94885
C         20.57073        11.89917        -0.64359
C         19.40724        12.49682        -0.29051
C         20.68965        14.58452         0.23894
C         19.32167        14.00801        -0.19254
C         20.67082        16.07885         0.49274
C         19.49196        16.65900         1.29116
C         20.68749        18.87757         1.45494
C         19.37932        18.15958         1.12685
C         20.70436        20.36349         1.21288
C         19.49155        21.03323         0.98309
C         20.71725        23.18446         1.12640
C         19.51097        22.45876         0.87099
C         20.74320        24.61958         0.85830
C         19.52073        25.30118         0.46619
C         20.77445        27.39534         0.00087
C         19.49545        26.67526         0.12059
C         20.75558        28.87111         0.04996
C         19.50010        29.56739        -0.17313
C         20.79063        31.65022        -0.50334
C         19.47785        30.92516        -0.31995
C         20.76524        33.13927        -0.29207
C         19.49564        33.82031        -0.10766
C         20.72463        35.97579        -0.35984
C         19.47763        35.28822        -0.12933
C         20.62428        37.43692        -0.60716
C         19.45137        38.17674        -0.13809
C         20.64324        40.31983        -0.38626
C         19.42498        39.56778        -0.13726
C         20.57909        41.83463        -0.46656
C         19.40292        42.41629         0.29120
C         20.71877        44.59004         0.41893
C         19.47845        43.82949         0.66415
C         20.69983        46.05546         0.77776
C         19.38896        46.74923         0.42373
C         20.63107        48.88393        -0.02991
C         19.36584        48.13083         0.15252
C         20.61783        50.34744         0.12056
C         19.43939        51.01494        -0.47450
C         20.67926        53.17801         0.02608
C         19.45179        52.49631        -0.25548
C         20.70217        54.60318        -0.21581
C         19.46876        55.29376        -0.49177
C         20.70590        57.34862        -0.98988
C         19.48672        56.66905        -0.78405
C         20.72597        58.70144        -1.40434
C         23.11003         3.68635        -3.13271
C         21.89875         4.32594        -2.87307
C         23.10813         6.41115        -2.40520
C         21.86972         5.69770        -2.49369
C         23.10286         7.78610        -2.03725
C         21.88520         8.41216        -1.69532
C         23.10524        10.62948        -1.47845
C         21.92132         9.78620        -1.16816
C         23.03864        11.99777        -1.38157
C         21.76669        12.68810        -1.06419
C         23.02474        15.02548        -0.96703
C         21.76906        14.15942        -0.78119
C         23.14577        16.06484         0.15086
C         21.83316        16.77467         0.43050
C         23.12700        18.99125         0.67557
C         21.83662        18.24038         0.67585
C         23.18247        20.38701         1.19363
C         21.91074        21.08160         1.31394
C         23.18590        23.19863         1.88916
C         21.90951        22.50142         1.41237
C         23.10435        24.77136         1.77027
C         21.93957        25.30232         0.95654
C         23.15262        27.52883         1.04943
C         22.03219        26.68445         0.47083
C         23.19923        28.89755         0.42165
C         21.95297        29.55851         0.20509
C         23.21505        31.73739        -0.07212
C         21.91961        31.05843         0.31851
C         23.19501        33.09376        -0.36568
C         21.95217        33.84450        -0.37800
C         23.18692        36.00603        -0.98142
C         21.92494        35.29617        -0.49946
C         23.20333        37.49559        -0.68187
C         21.91431        38.22292        -0.81011
C         23.11105        40.41835        -0.66869
C         21.84099        39.67272        -0.57054
C         23.09326        41.84628        -0.27925
C         21.90860        42.50324        -0.12335
C         23.17561        44.64764         0.23892
C         21.90791        43.93237         0.19714
C         23.18157        46.08495         0.31503
C         21.94448        46.74667         0.30306
C         23.09482        48.93002         0.57790
C         21.93544        48.18342         0.05166
C         22.83322        50.18905         1.02902
C         21.73818        51.03370         0.55911
C         23.17285        53.21061         0.54191
C         21.86296        52.47154         0.42816
C         23.20361        54.65099         0.03049
C         21.92521        55.30122        -0.34454
C         23.17908        57.27736        -1.17071
C         21.94264        56.63411        -0.81738
C         23.16733        58.60979        -1.65612
C         21.93460        59.34305        -1.73925
C         23.15315        61.29118        -2.58133
C         21.95554        60.68941        -2.19578
C         24.32265         4.36859        -3.02672
C         25.56303         6.45683        -2.53884
C         24.34913         5.74314        -2.66324
C         25.58036         7.83622        -2.21467
C         24.34242         8.51927        -1.98292
C         25.56530        10.62994        -1.79552
C         24.34803         9.92785        -1.77080
C         25.56845        12.09810        -1.76865
C         24.24508        12.83335        -1.59220
C         25.52256        14.84493        -0.89796
C         24.31218        14.22031        -1.07888
C         25.58932        16.35208        -0.68125
C         24.33636        16.95890        -0.07416
C         25.64530        18.89487         0.71639
C         24.36520        18.24263         0.36623
C         25.63144        20.28533         1.25425
C         24.37491        21.07611         1.21394
C         25.64042        23.19473         1.25760
C         24.44356        22.52928         1.34140
C         25.70520        24.65318         1.69107
C         24.43097        25.42148         1.37905
C         25.69265        27.49315         0.87612
C         24.45470        26.75040         1.05730
C         25.64900        28.84688         0.54544
C         24.41774        29.57526         0.29237
C         25.66164        31.69634        -0.16917
C         24.43460        30.98651        -0.03564
C         25.69249        33.08583        -0.28561
C         24.46236        33.79433        -0.76627
C         25.62926        35.95288        -0.29346
C         24.45615        35.28767        -0.54696
C         25.70468        37.43969        -0.61894
C         24.37399        38.16486        -0.51690
C         25.65772        40.41575        -0.36496
C         24.40519        39.65354        -0.61190
C         25.65260        41.77274        -0.31779
C         24.39640        42.46565         0.17461
C         25.60838        44.66613         0.09753
C         24.39304        43.96471         0.09852
C         25.62886        46.09507         0.26699
C         24.42304        46.80344         0.36076
C         25.72147        48.96074         1.06669
C         24.47725        48.32056         0.37234
C         25.85709        50.43578         0.86073
C         24.71225        51.29185         1.04692
C         25.80496        53.26686         0.24985
C         24.50277        52.51571         0.47939
C         25.66593        54.54363        -0.52875
C         24.45709        55.23593        -0.54165
C         25.61502        57.16283        -1.58931
C         24.40667        56.54928        -1.10881
C         25.58518        58.49670        -2.06039
C         24.38652        59.23574        -2.08304
C         24.35272        60.58304        -2.53945
C         26.80309         8.55594        -2.11734
C         28.03768        10.69435        -1.81081
C         26.81409         9.94094        -1.89901
C         28.05504        12.05916        -1.53730
C         26.81211        12.79478        -1.40898
C         28.04507        14.84335        -0.84844
C         26.78542        14.12941        -1.03082
C         28.07198        16.14477        -0.40444
C         26.81746        16.75628         0.15378
C         28.12519        18.95418         0.50969
C         26.90165        18.24859         0.34656
C         28.15941        20.27609         1.01630
C         26.93772        21.00930         1.53445
C         28.19603        23.21070         1.56778
C         26.94671        22.45980         0.99299
C         28.18063        24.66579         1.13823
C         26.96727        25.36619         1.22393
C         28.18653        27.43812         0.76489
C         26.95512        26.77001         0.97371
C         28.20755        28.90049         0.67005
C         26.89928        29.62422         0.53035
C         28.17152        31.69716        -0.01184
C         26.92641        30.89970        -0.27919
C         28.12803        33.06995         0.11160
C         26.89654        33.82656        -0.05440
C         28.06393        35.98274         0.44254
C         26.85021        35.23040         0.03156
C         28.09403        37.47063         0.42109
C         26.80852        38.18974         0.11726
C         28.15838        40.39740         0.23271
C         26.86971        39.67339         0.04827
C         28.16012        41.80790         0.17303
C         26.96997        42.48649        -0.53028
C         28.16358        44.70146        -0.00141
C         26.86009        43.98517        -0.28860
C         27.95412        45.90112         0.79838
C         26.88502        46.73913         0.60912
C         28.31481        48.91941         0.76185
C         27.01097        48.17438         1.02507
C         28.26090        50.27820         0.42067
C         27.02652        51.00776         0.39847
C         28.18985        53.06754        -0.54785
C         26.88376        52.33988        -0.33236
C         28.10307        54.40293        -1.01809
C         26.87327        55.12169        -1.06212
C         26.82606        56.43124        -1.57253
C         29.28323        12.79512        -1.43335
C         30.52751        14.88016        -1.02054
C         29.29492        14.14987        -1.14943
C         30.55760        16.23073        -0.73807
C         29.26708        17.01315        -0.68333
C         30.58756        18.95290         0.21113
C         29.35234        18.28954         0.12328
C         30.65192        20.29753         0.65807
C         29.47186        20.95587         1.31522
C         30.63750        23.14842         0.92831
C         29.45454        22.46860         1.16176
C         30.66347        24.61625         0.86732
C         29.40615        25.33245         0.85666
C         30.66464        27.44869         0.44637
C         29.41675        26.74128         0.67666
C         30.67293        28.83888         0.20427
C         29.44422        29.58280         0.23540
C         30.66828        31.67029        -0.21466
C         29.40840        30.95241         0.00988
C         30.67071        33.15866        -0.06277
C         29.38959        33.79683         0.36156
C         30.66568        35.99467         0.07536
C         29.38011        35.27419         0.48141
C         30.64230        37.47127         0.39582
C         29.37764        38.20251         0.02845
C         30.59348        40.36693         0.48377
C         29.36442        39.67637         0.39142
C         30.59709        41.78200         0.42147
C         29.39150        42.49507         0.29884
C         30.76073        44.68434         0.32671
C         29.49544        43.94205        -0.15060
C         30.87040        46.11375         0.40167
C         29.82890        46.91844         0.91603
C         30.75883        48.93223         0.00361
C         29.60511        48.26066         0.60495
C         30.70593        50.30340        -0.18899
C         29.53978        51.09248         0.32492
C         29.39160        52.40895        -0.39243
C         31.78290        16.94399        -0.59328
C         33.05727        18.98667        -0.10297
C         31.81523        18.27694        -0.20168
C         33.09593        20.32402         0.22483
C         31.85767        21.02831         0.53379
C         33.11645        23.18933         0.35248
C         31.85708        22.42561         0.67709
C         33.14644        24.53665         1.07753
C         31.86862        25.30418         0.81451
C         33.14484        27.37082         0.35406
C         31.91512        26.72218         0.54514
C         33.19478        28.76953        -0.20786
C         31.92206        29.55784         0.02272
C         33.17347        31.73591        -0.06513
C         31.92831        30.92782        -0.09161
C         33.11080        33.10750         0.42352
C         31.91099        33.85375         0.37355
C         33.03434        35.98104         1.17696
C         31.85408        35.23153         0.60995
C         33.05186        37.44449         0.80363
C         31.84913        38.16254         0.61270
C         33.05794        40.31818         0.61965
C         31.86768        39.63559         0.57271
C         33.09409        41.82562         0.71075
C         31.89448        42.46483         0.01899
C         33.21289        44.62424         0.03741
C         31.93824        43.96162         0.19828
C         33.23907        46.01389        -0.19745
C         32.05770        46.79459        -0.04779
C         31.96417        48.18865        -0.24494
C         34.34638        21.03940         0.41882
C         35.64252        23.09150         1.02059
C         34.37116        22.38250         0.60139
C         35.62936        24.57572         0.73039
C         34.41601        25.28122         0.74030
C         35.64177        27.36381         0.35532
C         34.40033        26.67338         0.49135
C         35.65642        28.82241         0.34179
C         34.45520        29.50870         0.18578
C         35.66282        31.63620         0.66933
C         34.49205        30.96188         0.10861
C         35.59316        33.02798         1.10816
C         34.25338        33.75598         1.17132
C         35.62797        35.97954         0.97608
C         34.32645        35.23921         0.72081
C         35.60634        37.38953         0.88863
C         34.33032        38.12738         1.02479
C         35.61311        40.29735         0.50973
C         34.34185        39.63459         0.89412
C         35.57480        41.68018         0.17950
C         34.39694        42.44660         0.23266
C         34.39648        43.82172        -0.04182
C         36.83559        25.25639         0.49049
C         38.15427        27.35717         0.01555
C         36.85398        26.64830         0.33065
C         38.15592        28.83852         0.35502
C         36.89533        29.53341         0.47351
C         38.12254        31.69659         0.84040
C         36.88205        30.94413         0.71571
C         38.13489        33.06840         0.88085
C         36.89636        33.81818         1.14021
C         38.08599        35.98866         0.73016
C         36.84939        35.28438         0.96676
C         38.03027        37.41091         0.58830
C         36.82403        38.12249         0.70516
C         36.78727        39.54883         0.49249
C         39.33967        29.51361         0.43528
C         40.42696        31.75202        -0.05960
C         39.45251        30.96870         0.80400
C         40.41992        33.09142        -0.03776
C         39.45215        33.82251         0.88045
C         39.29318        35.29068         0.59139
O         13.68799        39.96460         1.92439
O         16.34072        33.69434        -1.84752
O         36.29058        33.28747         2.38578
O         21.75794        26.84930        -0.95263
O         21.53199         9.83058         0.28051
O         27.50783        44.81759        -1.29979
O         23.83721        40.11533        -1.91591
O         29.77909        43.80738        -1.54064
O         16.08578        44.21305         2.06807
O         22.21624        18.97842        -0.52361
O         29.51350        34.44220         1.67613
O         14.63256        46.68293         1.29687
O         27.58435        29.63129         1.81056
O         30.64791        32.60396        -1.40531
O         34.35664        39.02270         2.22452
O         21.09355        37.80597        -1.94937
O         21.33173        13.69537        -2.09806
O         16.29122        20.46715        -0.68909
O         15.43077        23.85045        -0.93445
O         23.41836        22.91165         3.26813
O         28.91281        46.25844         1.74291
O         26.28225        48.44485         2.29179
O         24.85347        12.69158        -2.92066
O         23.73075        50.78455         1.89845
O         17.39994        50.96677         1.03393
O         26.39495        38.94296         1.28658
O         25.53084        19.16351         2.22044
O         27.98029        36.79965         1.69036
O         34.06300        31.50921        -1.22891
O         10.35826        35.52032         1.92215
O         23.23276        54.35091         1.48099
O         18.69685        33.21737         1.02170
O         18.20568        14.75161         2.05833
O         21.37090        48.52624        -1.31268
O         19.00525        44.17663         2.05861
O         13.08063        37.18336         2.52804
H         13.10256        38.09000         2.90839
O         12.02524        27.02900         2.49749
H         11.17554        26.66569         2.83086
O         20.99059        18.75770         2.86652
H         20.71035        17.86269         3.17524
O         21.66039        31.36249         1.71345
H         22.23673        30.79303         2.26623
O         23.14725        35.91767        -2.44896
H         23.84337        36.52122        -2.79298
O         26.98913        30.44371        -1.67003
H         26.85051        31.22131        -2.25213
O         17.06098        52.25539        -2.39767
H         17.90964        51.79590        -2.60418
O         16.98433        17.84275        -1.07568
H         16.83390        18.73582        -1.46721
O         25.76096        16.94544        -1.99416
H         24.93676        16.76274        -2.50092
O         29.87642        51.44962         1.72306
H         29.07005        51.83629         2.12829
O         25.76176        24.55718         3.16146
H         24.99048        23.97136         3.42339
O         33.27622        28.63111        -1.67311
H         33.43441        29.53740        -2.02701
O         14.69400        30.05802         1.69545
H         14.66069        29.27196         2.27994
O         29.69376        20.77415         2.77181
H         28.95175        21.26529         3.21532
O         22.88238        15.76536        -2.19892
H         22.50508        15.14373        -2.86309
O         33.07371        23.49166        -1.07367
H         33.02337        22.64311        -1.56200
O         26.55420        16.16547         1.47525
H         27.14635        16.59880         2.12646
O         30.75265        35.91780        -1.39106
H         30.91365        34.98256        -1.64790
O         20.78723        46.14804         2.24711
H         20.12861        45.49612         2.60305
O         18.94534        14.55464        -1.47498
H         19.62286        14.26682        -2.13523
O         32.92038        36.02734         2.61793
H         32.90405        35.09373         2.94548
O         24.44375        42.17864         1.62774
H         23.75028        42.71855         2.06501
O         21.12388        31.45377        -1.90747
H         20.31171        31.66282        -2.43040
O         34.27226        35.16852        -0.73218
H         34.22821        36.08091        -1.08860
O         27.13328        22.34170        -0.43987
H         27.05218        23.23366        -0.83842
O         19.89209        16.41289         2.67242
H         19.76936        15.44480         2.83286
O         26.04222        37.46082        -2.04121
H         26.07385        38.39574        -2.34026
O         24.53393        33.63259        -2.23996
H         23.87165        34.26670        -2.62256
O         22.79896        27.82862         2.43346
H         22.83461        26.97374         2.94355
O         18.36846        31.63881        -2.28377
H         18.28762        30.69439        -2.56690
O         36.79163        22.46028         0.45108
H         36.75343        22.57254        -0.52062
O         18.35708        28.69389        -2.03423
H         17.69204        28.03831        -2.33719
O         23.46801        15.31394         1.37590
H         24.35413        15.60373         1.69856
O         27.02550        21.08132         2.97927
H         26.60601        20.25714         3.32237
O         28.17715        23.23519         3.01333
H         27.32946        23.67849         3.29413
O         12.05515        35.51407        -1.34658
H         12.68173        34.89739        -1.78079
O         14.30732        30.42328        -1.92080
H         14.32079        31.21609        -2.49716
O         20.32026        42.15109        -1.88019
H         20.99714        41.68430        -2.41662
O         15.06841        22.40520         2.39817
H         15.06641        23.35983         2.66480
O         29.29502        38.18372        -1.44051
H         30.17172        38.43181        -1.80370
O         18.67015        37.31790         1.93010
H         17.98349        36.77057         2.36818
O         40.00580        30.99847         2.17173
H         39.34466        30.58131         2.76403
O         26.39345        51.97630        -1.65485
H         27.02308        51.34081        -2.05499
O         12.00410        33.48888         1.79666
H         11.42316        34.16433         2.23040
O          9.97001        31.08279        -1.30065
O         19.48329        50.78656        -1.94223
H         20.17298        50.10564        -2.12150
O         24.75858        48.68375        -1.03015
H         24.00998        48.36623        -1.58134
O          8.48408        36.53375        -1.72036
H          7.70202        35.95495        -1.82991
O         22.80358        25.24666         3.11749
H         22.94166        24.43271         3.69927
O         33.18985        24.21981         2.49895
H         33.04037        25.04619         3.00364
O         10.93486        26.89206        -1.01066
H         10.18295        27.29049        -1.49667
O         31.98157        42.24925        -1.41218
H         31.19574        42.76567        -1.77547
O         27.31465        42.31636        -1.93091
H         28.10400        42.90758        -2.08673
O         40.01162        33.75136         2.22771
H         40.17392        32.79034         2.41712
O         33.83473        33.64106         2.56117
H         34.66130        33.65298         3.10461
O         21.03176        13.94659         1.49295
H         21.89885        14.32030         1.78890
O          8.15077        36.80063         1.91789
H          8.91949        36.53859         2.47977
O         39.26490        26.69481         0.62544
H         39.14687        26.72163         1.59659
O         32.96480        42.14548         2.12478
H         33.56334        41.55363         2.62883
O         26.24980        53.66486         1.58044
H         25.50007        54.14069         2.00424
O         14.94732        25.27702         2.41906
H         14.23902        25.78440         2.87490
O         29.02981        17.50238        -2.06414
H         28.05806        17.61283        -2.17751
O         18.35225        11.33242         1.51619
H         19.21726        10.87968         1.61983
O         10.72703        33.48640        -1.65585
H         10.16448        32.80078        -2.08910
H          4.94519        31.13415         1.13230
H          4.89725        33.59096         0.98650
H          7.46929        26.87958         1.39547
H          6.21598        29.00209         1.17076
H          6.06237        35.72197         0.71333
H          7.50366        37.83231        -0.39970
H          9.96098        22.60909         1.53993
H          8.73147        24.75446         1.54883
H          8.87113        39.76319        -1.20843
H         10.15847        41.95161        -1.31865
H         12.40140        18.28387         1.89984
H         11.18660        20.54105         1.90698
H         11.46428        44.09242        -1.43451
H         12.62349        46.18901        -1.35240
H         14.70130        13.97657         0.66968
H         13.57190        16.04216         1.49266
H         13.78861        48.47574        -1.31055
H         14.88162        50.62337        -1.19827
H         17.21167         9.83639        -0.79567
H         15.96170        11.87745        -0.13399
H         16.09048        53.03314        -0.74779
H         17.31225        55.11922        -0.77356
H         19.70867         5.80792        -2.26969
H         18.47470         7.80880        -1.57164
H         18.53756        57.19939        -0.95069
H         19.77580        59.24712        -1.50389
H         23.11053         2.62525        -3.41967
H         20.95342         3.77034        -2.95234
H         23.14885        62.33236        -2.93330
H         21.01212        61.25117        -2.24990
H         25.26931         3.84631        -3.22567
H         26.51526         5.93663        -2.72096
H         26.51797        58.96402        -2.40889
H         25.28842        61.06221        -2.86119
H         27.75375         8.01723        -2.24403
H         28.99073        10.15898        -1.93438
H         29.02483        54.92207        -1.32317
H         27.74478        56.90194        -1.95230
H         30.23282        12.26358        -1.59583
H         31.47454        14.32876        -1.12758
H         31.57367        50.84059        -0.60085
H         30.32458        52.95539        -0.60723
H         32.72879        16.41801        -0.79448
H         33.99157        18.44756        -0.31947
H         34.18489        46.50231        -0.47439
H         32.85398        48.74675        -0.57293
H         35.27697        20.45630         0.49943
H         35.73490        22.96653         2.13669
H         36.51437        42.17137        -0.12029
H         35.34466        44.31110        -0.31679
H         37.77935        24.69270         0.46020
H         38.31400        27.26969        -1.09703
H         38.96207        37.95950         0.38541
H         37.73420        40.05400         0.24785
H         40.27924        28.94875         0.33142
H         41.14775        31.19629        -0.67840
H         41.14383        33.67102        -0.63081
H         40.21562        35.87016         0.43081
