         232
 CSIRO Nanostructure Databank - Neutral Graphene Oxide Data Set
C        -11.21115         0.84591         0.27862
C        -10.09785         1.56907        -0.40287
C         -8.82216         0.81525        -0.59939
C         -7.46186         1.41295        -0.64887
C         -6.35129         0.74017        -1.40624
C         -5.01302         1.43447        -1.21212
C         -3.85854         0.67914        -1.80729
C         -2.51390         1.44141        -1.74867
C         -1.20585         0.61670        -1.84323
C          0.07416         1.45624        -1.59098
C          1.21114         0.73953        -0.90544
C          2.45234         1.48602        -0.55022
C          3.70977         0.69820        -0.19398
C          4.99306         1.46407        -0.42757
C          6.19227         0.77927        -0.40382
C          7.41589         1.44757        -0.03324
C          8.67770         0.82059         0.03375
C          9.94338         1.51104         0.15783
C         11.13527         0.68851         0.31344
C        -10.07629         3.06249        -0.48526
C         -9.00980         3.73848         0.07892
C         -7.17913         2.47528         0.18115
C         -6.01989         3.25961         0.06981
C         -4.89163         2.71275        -0.62511
C         -3.67009         3.49004        -0.65275
C         -2.48945         2.88925        -1.31743
C         -1.20384         3.68129        -1.35849
C          0.11093         2.96311        -1.49208
C          1.35024         3.66000        -1.00733
C          2.53772         2.94594        -0.81609
C          3.78305         3.61232        -0.64457
C          4.97213         2.90432        -0.41543
C          6.19049         3.60103        -0.09288
C          7.23818         2.80952         0.35762
C          9.12949         3.86489         0.32287
C         10.15536         2.90083         0.05919
C         -8.50205         5.03609        -0.14769
C         -7.26107         5.49378         0.42197
C         -6.04108         4.58908         0.77928
C         -4.75384         5.34918         0.57609
C         -3.63203         4.78545        -0.04452
C         -2.28392         5.49025         0.14002
C         -1.21340         5.08027        -0.85768
C          0.08809         5.83979        -0.82015
C          1.37312         5.09559        -0.80575
C          2.54436         5.78292        -0.57918
C          3.86242         5.09653        -0.85137
C          5.09856         5.75295        -0.25258
C          6.27383         5.06033        -0.05736
C          7.56420         5.79392         0.05789
C          8.86673         5.13960        -0.12683
C         -7.15192         6.81806         0.75604
C         -6.02899         7.33671         1.61476
C         -4.70425         6.67979         1.23338
C         -3.49404         7.54387         1.05837
C         -2.33445         7.00011         0.33116
C         -1.21976         7.78608         0.20910
C          0.04444         7.25454        -0.34624
C          1.29907         7.91841         0.02602
C          2.57575         7.30091        -0.48874
C          3.75050         7.76049         0.38742
C          5.05332         7.22410        -0.16420
C          6.32805         7.96557         0.10848
C          7.55867         7.16910         0.16312
C         -5.99379         8.84979         1.60908
C         -4.87852         9.59748         1.48594
C         -3.58220         9.01598         1.19654
C         -2.45173         9.77307         1.04702
C         -1.18826         9.16224         0.69824
C          0.01608         9.82382         0.84595
C          1.28554         9.19085         0.55859
C          2.54617         9.88945         0.79158
C          3.74737         9.25252         0.65334
C          5.01758         9.89571         0.94735
C          6.21701         9.29272         0.75315
C        -11.11488        -0.42591         0.71466
C         -9.86093        -1.21945         0.64397
C         -8.68036        -0.56552        -0.02040
C         -7.55192        -1.38289        -0.57024
C         -6.26450        -0.71005        -0.89101
C         -5.07454        -1.41125        -0.80853
C         -3.81785        -0.79030        -1.31620
C         -2.50466        -1.45808        -1.04047
C         -1.26747        -0.57163        -0.81482
C          0.01624        -1.41100        -0.84536
C          1.24595        -0.74685        -0.92288
C          2.47094        -1.45720        -0.85349
C          3.73537        -0.73467        -0.71358
C          4.93037        -1.39410        -0.69649
C          6.24932        -0.67022        -0.79753
C          7.37004        -1.34114         0.00407
C          8.73617        -0.66742        -0.28875
C          9.86330        -1.39523         0.41087
C         11.09236        -0.65270         0.55499
C         -9.85461        -2.67091         0.78529
C         -8.72696        -3.45267         0.46876
C         -7.55613        -2.83317        -0.24221
C         -6.24343        -3.50996        -0.10836
C         -5.01907        -2.77312        -0.31080
C         -3.75055        -3.41912        -0.11014
C         -2.54036        -2.78110        -0.39303
C         -1.24657        -3.44368        -0.16399
C          0.01078        -2.80279        -0.60666
C          1.21227        -3.56259        -0.71287
C          2.44334        -2.87503        -0.89203
C          3.72433        -3.60761        -1.04127
C          5.01746        -2.85210        -0.91312
C          6.23302        -3.56910        -0.42006
C          7.38968        -2.85049        -0.11363
C          8.56476        -3.50959         0.37172
C          9.76639        -2.73986         0.65151
C         -8.67297        -4.82541         0.69027
C         -7.57663        -5.63240         0.04966
C         -6.27710        -4.86189         0.17892
C         -5.04343        -5.58204         0.46500
C         -3.72455        -4.83819         0.36241
C         -2.56801        -5.63779        -0.12117
C         -1.25222        -4.96897        -0.03784
C          0.02316        -5.68890        -0.26935
C          1.17897        -5.02763        -0.60369
C          2.43783        -5.82182        -0.78304
C          3.75354        -5.09798        -0.87079
C          4.96601        -5.73740        -0.30017
C          6.17146        -4.97747        -0.14813
C          7.33242        -5.62001         0.39330
C          8.52976        -4.88504         0.58801
C         -7.49313        -7.06166         0.52909
C         -6.30758        -7.75381         0.56758
C         -5.06002        -7.05234         0.34901
C         -3.90466        -7.72671         0.01050
C         -2.80405        -6.94104        -0.53996
C         -0.98808        -7.88929         0.72819
C         -0.01058        -7.17236        -0.16630
C          1.24167        -7.99688        -0.34427
C          2.49116        -7.22734        -0.31318
C          3.64497        -7.80542         0.16737
C          4.89345        -7.05686         0.18978
C          6.05548        -7.67117         0.76522
C          7.25633        -6.97364         0.81156
C         -6.21877        -9.19947         0.68660
C         -5.03781        -9.85598         0.51499
C         -3.78703        -9.16678         0.23843
C         -2.59100        -9.86737         0.35311
C         -1.23889        -9.32771         0.36115
C         -0.11207       -10.08595         0.19856
C          1.26722        -9.50412        -0.08764
C          2.41690        -9.87461         0.81172
C          3.57523        -9.14328         0.78097
C          4.77902        -9.66650         1.40117
C          5.95499        -8.99308         1.35127
O         -4.13928         0.54988        -3.23295
H         -3.44881        -0.05695        -3.59379
O          0.33129        -7.77578        -1.46411
O         -6.72532         0.71002        -2.79843
H         -5.90066         0.54537        -3.32312
O         -1.52460         4.82150        -2.24521
O         -8.22520         2.96683         0.98722
O         -1.16472        -4.10477         1.14122
O         -6.34018         6.96210         2.98710
H         -5.47975         6.78774         3.43084
O         -1.77842         4.98682         1.41584
H         -2.38342         5.33928         2.11535
O          9.07909        -0.77600        -1.70853
H          9.25977        -1.72073        -1.90161
O         -1.44661         0.03365         0.43230
O         -1.11018         0.08759        -3.16792
H         -0.80810         0.82453        -3.74683
O          4.51293        -3.24826        -2.23235
O         -8.72503        -0.57435         1.42363
O          6.52681        -0.71835        -2.21882
H          7.46908        -0.45274        -2.36225
O          8.16446         3.36905         1.23006
O          3.70060         0.53840         1.25751
H          2.75329         0.56516         1.53781
O         -7.92142        -2.37622        -1.59852
O          5.67358         7.95782        -1.24823
O          1.39577         1.24995         0.46429
O          0.40158         2.24967        -2.76216
O         -7.87555        -5.73217        -1.38995
H         -8.03219        -4.82188        -1.72607
O          7.06511        -1.07741         1.39734
H          7.75387        -1.50522         1.94840
O          3.60084         7.11137         1.68011
H          2.80734         7.48363         2.11977
O         -2.10526        -7.50027        -1.55525
H         -2.36693        -8.43458        -1.68205
O          1.61290       -10.09863        -1.38103
H          1.14938        -9.56837        -2.06774
O          4.08271         5.30553        -2.29951
H          3.98838         6.27725        -2.45726
O          2.77354         7.78710        -1.84572
H          1.92462         7.61820        -2.32193
O         -6.13846         4.30212         2.20174
H         -7.02622         3.90251         2.35063
O         -1.34452        -7.42776         1.79914
O          3.15263        -5.71264        -2.06423
O         -9.73818         0.94069        -1.71352
O          0.04793         6.93996        -1.80485
O         -3.13138        -1.56970        -2.36211
O         -2.66373         2.48053        -2.74357
O         -3.71836         6.77676         2.33972
O         -4.30854        -5.10355         1.66621
H         12.00912        -1.19705         0.82726
H         12.10091         1.21274         0.37781
H         11.17622         3.24775        -0.16763
H          9.62821         5.69010        -0.69952
H          8.51312         7.69991         0.30372
H          7.14520         9.81029         1.03996
H          4.98303        10.91301         1.36767
H          2.50876        10.95260         1.07354
H          0.02121        10.85316         1.23418
H         -2.49183        10.86108         1.20650
H         -4.93706        10.69363         1.56823
H         -6.95283         9.34494         1.82453
H         -8.02418         7.47560         0.60957
H         -9.11022         5.76027        -0.71048
H        -10.77152         3.57122        -1.16836
H        -12.16192         1.38634         0.40412
H        -11.99030        -0.91266         1.17178
H        -10.77259        -3.17220         1.12659
H         -9.45779        -5.32421         1.27781
H         -8.44208        -7.60968         0.63579
H         -7.13728        -9.76556         0.89978
H         -5.00268       -10.94986         0.63035
H         -2.67213       -10.95887         0.49245
H         -0.21381       -11.16859         0.01325
H          2.41124       -10.86146         1.29823
H          4.72545       -10.65832         1.87335
H          6.86266        -9.42846         1.79460
H          8.14777        -7.44936         1.24661
H          9.41769        -5.40126         0.98191
H         10.63621        -3.28230         1.05427
