         424
 CSIRO Nanostructure Databank - Neutral Graphene Oxide Data Set
C          1.43447         3.50443         1.78129
C          0.34710         4.23129         2.16043
C          1.35345         6.34280         1.43523
C          0.35207         5.67273         2.05898
C          1.37626         7.85319         1.43723
C          0.07820         8.48638         1.00790
C          1.25932        10.57622         0.50662
C          0.04529         9.79267         0.66540
C          1.21995        11.98970         0.30122
C          0.00769        12.73071         0.40604
C          1.17523        14.83245        -0.02358
C         -0.01189        14.09761         0.23824
C          1.15887        16.26901        -0.18325
C         -0.06506        16.99104        -0.18263
C          1.12257        19.11471        -0.27283
C         -0.08297        18.36585        -0.24542
C          1.11040        20.55264        -0.21078
C         -0.09439        21.30156        -0.22960
C          1.13958        23.37852         0.09967
C         -0.07672        22.67464        -0.11999
C          1.15671        24.82617         0.23872
C         -0.01736        25.56824         0.31312
C          1.19681        27.69016         0.30258
C          0.00001        26.97232         0.33760
C          1.19637        29.15127         0.18953
C         -0.00329        29.86795        -0.05447
C          1.19081        31.99180        -0.04230
C         -0.00688        31.24673        -0.14595
C          1.19495        33.44187        -0.08495
C         -0.01985        34.19360        -0.07126
C          1.20990        36.29415        -0.03763
C         -0.01334        35.57040        -0.03021
C          1.24064        37.71880         0.01084
C          3.78638         3.49787         1.08125
C          2.59895         4.15967         1.23357
C          3.77803         6.32907         0.70446
C          2.45769         5.58342         0.73851
C          3.74014         7.75742         0.58235
C          2.55960         8.46579         0.71932
C          3.66041        10.58288         0.00424
C          2.50147         9.89037         0.43258
C          3.64830        11.98279        -0.15825
C          2.42665        12.70410         0.02424
C          3.62925        14.83125        -0.36511
C          2.40752        14.12670        -0.11169
C          3.63417        16.28335        -0.40139
C          2.37569        16.98838        -0.31584
C          3.59445        19.15436        -0.37830
C          2.36429        18.41711        -0.32042
C          3.58805        20.55205        -0.25054
C          2.34245        21.25560        -0.08937
C          3.62444        23.31663         0.56033
C          2.34232        22.65399         0.13063
C          3.61881        24.80919         0.36335
C          2.43140        25.51899         0.29126
C          3.66730        27.67121         0.36033
C          2.43978        26.97447         0.32656
C          3.65711        29.14538         0.68545
C          2.40199        29.86662         0.26740
C          3.66374        31.99666         0.15912
C          2.41487        31.28181         0.13407
C          3.67317        33.40358        -0.02258
C          2.42498        34.13223        -0.09976
C          3.65813        36.28374        -0.16321
C          2.43847        35.57126        -0.10949
C          3.67917        37.69903        -0.09298
C          2.43462        38.40061         0.00049
C          6.16575         3.47623         0.46721
C          4.98956         4.17638         0.65356
C          6.19112         6.30159         0.11729
C          4.96609         5.62239         0.51809
C          6.20343         7.71072        -0.02046
C          5.03427         8.53262         0.44308
C          6.14266        10.58120        -0.49487
C          4.86369         9.77904        -0.42537
C          6.10637        11.97255        -0.62197
C          4.85701        12.69589        -0.49424
C          6.02858        14.85628        -1.06001
C          4.81682        14.09950        -0.58719
C          6.13007        16.23608        -0.39171
C          4.83295        16.99951        -0.49841
C          6.03203        19.14920        -0.76132
C          4.85681        18.44004        -0.53620
C          6.00112        20.64028        -1.00160
C          4.81555        21.31237        -0.35235
C          6.09868        23.39269        -0.07722
C          4.85349        22.65041        -0.03013
C          6.13823        24.76729         0.15523
C          4.91954        25.51331         0.63848
C          6.12667        27.67972         0.17366
C          4.90405        26.98668         0.31282
C          6.13176        29.14337         0.16106
C          4.92485        29.85834         0.31290
C          6.13517        31.98735         0.20480
C          4.90869        31.27654         0.23292
C          6.13121        33.42039         0.09516
C          4.90620        34.09988        -0.08922
C          6.16916        36.28251        -0.08214
C          4.92466        35.54783        -0.48984
C          6.15621        37.70908        -0.02554
C          4.91928        38.39765        -0.08344
C          8.58934         3.43882        -0.01821
C          7.37689         4.13742         0.06812
C          8.51643         6.18900        -0.86545
C          7.34553         5.54164        -0.17728
C          8.56045         7.67622        -0.62985
C          7.39911         8.40451        -0.38960
C          8.58263        10.57408        -0.70130
C          7.38332         9.87119        -0.52794
C          8.61554        11.99924        -0.84625
C          7.34579        12.71564        -0.81068
C          8.52990        14.85761        -1.19587
C          7.31486        14.09270        -0.89924
C          8.53813        16.33190        -1.02758
C          7.35226        16.99480        -0.86233
C          8.56912        19.19620        -1.03451
C          7.27088        18.44815        -1.24693
C          8.56071        20.58188        -0.84993
C          7.31868        21.31562        -0.66010
C          8.61905        23.31462         0.10672
C          7.32978        22.64839        -0.30867
C          8.59194        24.81987        -0.05151
C          7.37512        25.51290         0.06754
C          8.59552        27.66027        -0.02948
C          7.35582        26.95597         0.05610
C          8.61928        29.14480        -0.32000
C          7.35012        29.85863         0.05407
C          8.61762        31.97559         0.25940
C          7.37627        31.26903         0.17282
C          8.58849        33.42692         0.64886
C          7.35620        34.14074         0.16981
C          8.61671        36.27362         0.19209
C          7.37008        35.56253         0.09796
C          8.61106        37.71589         0.21094
C          7.39017        38.40227         0.14147
C         11.04716         3.44141        -0.07137
C          9.83070         4.11598        -0.23749
C         11.05961         6.16932        -0.78758
C          9.84310         5.50705        -0.59380
C         11.07137         7.59800        -1.20476
C          9.79955         8.37253        -1.00314
C         11.16158        10.54404        -0.78918
C          9.85313         9.82370        -0.65817
C         11.11696        12.01969        -0.97625
C          9.83445        12.68281        -1.02063
C         11.07776        14.92854        -1.23437
C          9.83407        14.12792        -1.32187
C         11.05523        16.30760        -1.22356
C          9.79467        17.05200        -1.18663
C         11.05849        19.14605        -1.60938
C          9.78922        18.44626        -1.17365
C         11.03711        20.65860        -1.36414
C          9.80793        21.33207        -0.86977
C         11.07712        23.42344        -0.47936
C          9.84670        22.65815        -0.47846
C         11.04908        24.83576        -0.27237
C          9.82497        25.53197        -0.09281
C         11.07695        27.66794         0.36127
C          9.79766        26.96861        -0.02732
C         11.08732        29.17594         0.25115
C          9.87757        29.86897         0.11420
C         11.09736        32.01175         0.40251
C          9.85969        31.29227         0.24162
C         11.09969        33.44146         0.37321
C          9.86354        34.15936         0.32134
C         11.11154        36.29775        -0.11681
C          9.83939        35.55385         0.20445
C         11.08317        37.74552         0.32879
C          9.85053        38.41065         0.37312
C         13.49180         3.45334         0.13679
C         12.28279         4.12907        -0.14995
C         13.54667         6.24199        -0.45762
C         12.29930         5.52356        -0.49013
C         13.60829         7.63774        -0.74572
C         12.41598         8.31036        -1.39865
C         13.62364        10.50895        -1.20731
C         12.36089         9.79268        -1.12870
C         13.58344        12.00542        -1.19187
C         12.28927        12.71930        -1.13814
C         13.57751        14.89891        -0.92128
C         12.36577        14.18993        -1.48934
C         13.54224        16.32175        -0.83563
C         12.31926        17.04730        -1.09247
C         13.54052        19.16243        -0.88401
C         12.32329        18.44249        -1.12656
C         13.58333        20.59178        -0.91027
C         12.34490        21.37192        -1.12795
C         13.56379        23.45239        -0.54092
C         12.31190        22.76728        -0.67258
C         13.57989        24.85932        -0.39293
C         12.28771        25.59470        -0.68580
C         13.57561        27.75662         0.04545
C         12.30818        27.06034        -0.27036
C         13.57215        29.10501         0.74677
C         12.30664        29.87098         0.42583
C         13.58636        31.97663         0.60144
C         12.33891        31.29119         0.47167
C         13.58492        33.45146         0.89747
C         12.32972        34.16419         0.45003
C         13.56045        36.28789         0.42383
C         12.35114        35.55938         0.31929
C         13.55128        37.73051         0.45692
C         12.29791        38.41593         0.51358
C         15.92466         3.46563         0.49597
C         14.71748         4.14090         0.17622
C         15.97613         6.25935         0.00698
C         14.74148         5.55611        -0.08903
C         16.01902         7.66625        -0.23777
C         14.81668         8.34771        -0.63663
C         16.02129        10.50160        -0.60754
C         14.86350         9.79089        -0.81577
C         16.00305        11.96440        -0.35479
C         14.73844        12.72688        -0.58059
C         15.94997        14.87697        -0.24086
C         14.75035        14.20469        -0.63164
C         15.93057        16.29383        -0.16422
C         14.72928        17.01696        -0.48156
C         15.89970        19.16962        -0.15339
C         14.72210        18.45357        -0.50610
C         15.97094        20.57102        -0.29911
C         14.77093        21.28236        -0.63233
C         16.01492        23.43419        -0.53513
C         14.78885        22.73175        -0.57000
C         16.02258        24.82779        -0.41875
C         14.79958        25.53688        -0.28949
C         16.04144        27.74562        -0.27612
C         14.83350        26.94222         0.27846
C         16.05751        29.18346         0.19688
C         14.85480        29.86246         0.43208
C         16.07259        32.00289         0.38512
C         14.83377        31.28785         0.50800
C         16.06514        33.44613         0.33319
C         14.83773        34.15825         0.45279
C         16.01182        36.31772         0.26767
C         14.81556        35.58299         0.39723
C         16.01198        37.74346         0.38294
C         14.76547        38.42620         0.49986
C         18.36019         3.47226         0.91446
C         17.14265         4.15123         0.57916
C         18.40574         6.27597         0.46057
C         17.17744         5.56750         0.34142
C         18.44709         7.69158         0.23264
C         17.25737         8.35555        -0.14976
C         18.55895        10.58270        -0.13235
C         17.30120         9.78737        -0.47428
C         18.45495        12.04796         0.08558
C         17.25211        12.73053        -0.13672
C         18.34175        14.86741         0.41610
C         17.17039        14.15030         0.02042
C         18.27554        16.29069         0.60586
C         17.10465        16.97979         0.29926
C         18.34089        19.22967         0.64107
C         17.02982        18.45089         0.43872
C         18.39321        20.61618         0.15149
C         17.22663        21.27392        -0.20303
C         18.54862        23.42338        -0.32314
C         17.30441        22.67994        -0.76171
C         18.56514        24.82358        -0.32072
C         17.31274        25.58783        -0.66097
C         18.57024        27.74311        -0.21872
C         17.31801        26.95310         0.06339
C         18.53558        29.16022        -0.15641
C         17.29142        29.87824         0.07644
C         18.53102        32.02253         0.04832
C         17.29505        31.30104         0.18893
C         18.52076        33.45368         0.08190
C         17.27938        34.14205         0.14449
C         18.52844        36.33149         0.23212
C         17.26580        35.61440        -0.16000
C         18.49052        37.73982         0.43222
C         17.24146        38.43393         0.43057
C         19.54091         4.16142         1.03302
C         20.80230         6.30024         0.98065
C         19.59213         5.57339         0.82404
C         20.83285         7.67055         0.83573
C         19.67093         8.41846         0.47644
C         20.78440        10.61565         0.92147
C         19.69375         9.84408         0.44207
C         20.77314        11.99438         0.90671
C         19.61548        12.75347         0.52393
C         20.75570        14.92721         0.97521
C         19.56409        14.16783         0.64555
C         20.72579        16.25268         1.20824
C         19.44149        17.02747         1.26095
C         20.75917        19.05249         0.38616
C         19.57826        18.44374         0.71645
C         20.82496        20.45492         0.10862
C         19.69357        21.24531         0.03950
C         20.92970        23.43077         0.14611
C         19.74162        22.70548        -0.07453
C         20.94993        24.82041         0.07619
C         19.77123        25.55095        -0.16865
C         20.97606        27.75874        -0.42033
C         19.77733        27.02395        -0.27601
C         20.96113        29.14536        -0.42006
C         19.76191        29.87708        -0.25506
C         20.94446        32.08006        -0.27288
C         19.75680        31.32862        -0.16062
C         20.94448        33.46760        -0.15103
C         19.75296        34.18215         0.03464
C         20.94295        36.35433         0.48248
C         19.75247        35.63493         0.23713
C         20.91161        37.73727         0.68329
C         19.70711        38.43166         0.65646
O         10.22284         7.95421        -2.37401
O         18.26612        10.16673        -1.52120
O         17.40570        18.99176         1.75650
O         13.84593        11.33864        -2.46586
O         13.00141        27.86367        -1.28770
O         14.93371        26.76413         1.66304
O         10.61938        10.08179         0.57270
O          9.05906        14.48047        -2.54626
O         15.04021        12.23627         0.77166
O         11.71453        21.31859        -2.48733
O          7.12799        18.41370        -2.73635
H          8.00165        18.15104        -3.10357
O          5.06736        25.48718         2.13719
H          4.49163        26.19982         2.49315
O          8.72415        23.09192         1.56430
H          7.96346        23.54945         1.98342
O          3.70957        23.10092         2.01847
H          4.32425        23.79519         2.36741
O         13.55284        28.90582         2.18218
H         13.77263        29.75816         2.61202
O          6.34299        15.96988         1.03060
H          6.30760        16.82443         1.50934
O         11.04484        18.95215        -3.05863
H         11.50349        19.73736        -3.44489
O          5.36211         9.01537         1.78277
H          5.43442         8.23859         2.37616
O          5.81183        20.81614        -2.44885
H          6.28898        20.07206        -2.89432
O         17.22668        35.68598        -1.65070
H         17.18735        36.63795        -1.88718
O         12.55950        14.22781        -2.94381
H         11.73209        13.91037        -3.36505
O          1.56612         8.23697         2.84816
H          1.58682         9.21739         2.88213
O          8.26064         6.02994        -2.31513
H          8.93117         6.59797        -2.76917
O          4.58469         9.30101        -1.77378
H          4.45606        10.08069        -2.35347
O          8.49677        33.43721         2.14001
H          8.46451        34.37767         2.41845
O         11.18405        36.34210        -1.58774
H         10.38892        36.82399        -1.90056
O         17.43790        22.56664        -2.22846
H         16.67434        22.04069        -2.55074
O          4.98438        35.52787        -1.98483
H          4.95224        36.46397        -2.27892
O          8.65832        29.20521        -1.79936
H          8.67134        30.15237        -2.05513
O         13.57917        33.54261         2.39032
H         13.59542        34.49703         2.61886
O         17.41984        26.69300         1.47057
H         16.48631        26.61355         1.85277
O          5.85656        15.04193        -2.49307
H          6.73561        15.22443        -2.88994
O         12.20468        25.58448        -2.15111
H         12.67688        26.39674        -2.45569
O          3.63163        29.17774         2.17421
H          2.71927        28.94490         2.45103
O         11.21045        27.35038         1.78360
H         10.58614        27.90958         2.29065
O         12.72729         8.20690        -2.82748
H         11.89053         8.39133        -3.31310
O         15.87540        27.88270        -1.69477
H         16.26073        27.09640        -2.15516
O         19.12226        17.15273         2.67956
H         18.35956        17.78095         2.74400
O         17.38593        25.77765        -2.11513
H         17.43947        24.87880        -2.51483
O          2.03738         5.48409        -0.66959
H          2.74625         5.00876        -1.15336
H          1.47211         2.41760         1.94898
H         -0.52277         3.73713         2.61537
H         -0.46570         6.22844         2.54124
H         -0.85348         7.90630         1.07947
H         -0.92119        10.26461         0.43746
H         -0.93347        12.21251         0.63272
H         -0.97316        14.61965         0.33042
H         -1.02174        16.45560        -0.13112
H         -1.05203        18.88151        -0.23742
H         -1.05986        20.79483        -0.35819
H         -1.02751        23.22055        -0.17845
H         -0.99336        25.06612         0.33289
H         -0.96319        27.49803         0.36601
H         -0.95489        29.33221        -0.16583
H         -0.96280        31.75867        -0.31810
H         -0.98508        33.66998        -0.05863
H         -0.96262        36.12421         0.00974
H          0.28962        38.26862         0.06506
H          3.85728         2.42970         1.33954
H          2.44738        39.49896         0.05311
H          6.18295         2.38706         0.62174
H          4.91336        39.49581        -0.02473
H          8.60879         2.36134         0.20291
H          7.38296        39.50073         0.19738
H         11.04493         2.37146         0.18460
H          9.82898        39.49677         0.55081
H         13.46460         2.37848         0.36911
H         12.29457        39.50096         0.69964
H         15.89584         2.38296         0.68956
H         14.76241        39.52296         0.58122
H         18.33010         2.38634         1.08514
H         17.24019        39.52624         0.55785
H         20.46739         3.63268         1.30064
H         21.72102         5.75643         1.24429
H         21.78694         8.19395         0.98435
H         21.67700        10.10851         1.31279
H         21.66230        12.51963         1.27826
H         21.72165        14.40505         1.01333
H         21.65275        16.77167         1.49076
H         21.70341        18.49053         0.40475
H         21.81924        20.90162        -0.02771
H         21.86409        22.89654         0.36783
H         21.90274        25.34470         0.23330
H         21.93762        27.23715        -0.52503
H         21.91826        29.67413        -0.52136
H         21.90442        31.57522        -0.44304
H         21.90292        33.99974        -0.21958
H         21.90896        35.83332         0.52056
H         21.85042        38.27847         0.86681
H         19.68809        39.51907         0.81646
