         252
 CSIRO Nanostructure Databank - Neutral Graphene Oxide Data Set
C         30.41037        31.93669        -1.48396
C         30.63980        33.10726        -1.11126
C         30.57265        36.25461        -0.98096
C         30.53359        37.48325        -0.99932
C         30.55868        39.94080         0.92831
C         30.45624        40.98844         1.60050
C         32.89385        29.39683        -1.83127
C         31.65062        29.73012        -2.08475
C         33.06333        31.86185        -0.70304
C         31.16764        30.74736        -1.24341
C         32.97156        33.28878        -0.72053
C         31.71403        34.00669        -0.81756
C         32.94141        36.19481        -0.78547
C         31.71950        35.39949        -0.84226
C         32.96092        37.62895        -0.86974
C         31.61404        38.49047        -1.12210
C         32.42080        40.64191        -0.19291
C         31.48583        39.65411        -0.14921
C         32.56161        41.85941         0.67479
C         31.66344        41.79078         2.01619
C         32.64749        43.94037         2.20526
C         31.64333        43.25239         2.42176
C         35.31640        27.57601        -1.22939
C         35.48823        29.00115        -1.84317
C         34.19004        29.79947        -1.66858
C         35.25773        32.06249        -1.63418
C         34.17170        31.21944        -1.30578
C         35.39585        33.32690        -1.05552
C         34.18590        34.02931        -0.76008
C         35.41856        36.14712        -0.60316
C         34.18248        35.47022        -0.69033
C         35.44683        37.56832        -0.56993
C         34.21177        38.29601        -0.75734
C         35.36671        40.36486         0.06512
C         34.36269        39.72840        -0.65021
C         35.19944        41.71280         0.64875
C         34.00582        42.29632         1.02012
C         35.24495        44.44801         1.84156
C         34.02563        43.59220         1.82491
C         35.42778        45.88592         2.08201
C         37.71579        27.39665        -0.58883
C         36.42973        27.04114        -0.90393
C         37.72449        28.88878        -0.24481
C         36.75614        29.64588        -1.17815
C         38.29280        31.73120        -1.15201
C         37.10797        30.89418        -1.54793
C         38.02651        33.18827        -0.70929
C         36.70200        33.87316        -0.63502
C         37.96577        36.05613        -0.39216
C         36.65071        35.37405        -0.33125
C         37.94392        37.58049        -0.30913
C         36.64698        38.27984        -0.28843
C         37.81376        40.29768         0.51830
C         36.63155        39.64637         0.14157
C         37.75726        41.67880         1.03366
C         36.49586        42.46947         0.81355
C         37.81140        44.58730         1.56444
C         36.52963        43.91445         1.23014
C         37.89708        46.04807         2.11121
C         36.47823        46.52738         2.01350
C         40.16527        24.59510        -0.24113
C         39.12504        25.22890        -0.47939
C         40.32189        27.34898        -0.35557
C         38.96783        26.66210        -0.69774
C         40.26576        28.76157         0.25437
C         39.09265        29.53541        -0.28726
C         40.40428        31.71233         0.15678
C         39.07866        31.01851        -0.04685
C         40.35700        33.09199         0.17491
C         39.15021        33.84182        -0.20034
C         40.33395        35.97098         0.33034
C         39.17312        35.28259        -0.00155
C         40.25457        37.41407         0.78306
C         39.14573        38.22591         0.17215
C         40.28125        40.22624         1.17796
C         39.17544        39.71517         0.23034
C         40.34211        41.73105         1.13194
C         39.04130        42.41603         1.34711
C         40.23945        44.57985         1.20258
C         39.03139        43.90369         1.36312
C         40.18855        46.03244         0.90894
C         38.95528        46.81569         1.31911
C         39.56484        48.32647        -0.50230
C         38.75994        47.89608         0.34563
C         42.73246        24.51877         0.37119
C         41.46302        25.12864         0.06032
C         42.86337        27.27536        -0.20963
C         41.52953        26.51777        -0.04605
C         42.78590        28.66574         0.47753
C         41.60039        29.52044        -0.01051
C         42.76215        31.59888         0.86181
C         41.60152        30.96389         0.48024
C         42.76192        33.05806         1.12464
C         41.49201        33.82708         0.75527
C         42.77462        35.95369         0.79014
C         41.55893        35.28140         0.59694
C         42.80854        37.39533         0.69130
C         41.57267        38.15437         0.71151
C         42.79296        40.30060         0.72920
C         41.57622        39.53388         0.82838
C         42.78451        41.68138         0.82168
C         41.52985        42.40158         1.02397
C         42.70968        44.60973         0.51704
C         41.58340        43.89447         1.32461
C         42.29338        45.62654        -0.52083
C         40.97007        46.38612        -0.32858
C         41.67338        47.92776        -2.01530
C         40.71573        47.68564        -1.06333
C         43.83221        25.08056         0.41889
C         45.33760        27.20869         0.75043
C         44.15270        26.49332         0.22783
C         45.31983        28.70498         1.01419
C         43.98323        29.35030         1.11152
C         45.25378        31.60980         1.51828
C         43.89739        30.84689         1.53010
C         45.28462        33.09819         1.28367
C         44.03844        33.81163         1.12927
C         45.23898        35.96493         1.00547
C         44.01508        35.22167         0.97635
C         45.25961        37.36397         0.79625
C         44.02502        38.07289         0.64580
C         45.32274        40.22411         0.46804
C         44.00758        39.53281         0.25850
C         45.34167        41.68143         0.51286
C         44.09220        42.45955         0.95805
C         45.07820        44.42728        -0.61824
C         44.03831        43.90352         0.37145
C         44.69126        45.68819        -1.46897
C         43.31850        46.21685        -1.43516
C         42.75743        47.23907        -2.14623
C         47.61105        27.23562         1.19399
C         46.54902        26.62486         1.39432
C         47.79614        28.64293         0.85118
C         46.49664        29.38214         1.13131
C         47.87361        31.57691         1.34459
C         46.54910        30.84239         1.44328
C         47.83690        33.10500         1.64658
C         46.49059        33.78205         1.36838
C         47.81448        36.07711         1.28656
C         46.47864        35.26182         1.36610
C         47.72640        37.39536         0.65532
C         46.50716        38.06182         0.55845
C         47.64308        40.14234        -0.33669
C         46.48220        39.48988         0.23400
C         47.58286        41.44896        -0.76187
C         46.50554        42.33665        -0.29676
C         47.04229        43.88917        -2.15413
C         46.22459        43.58084        -1.02962
C         46.55326        45.05617        -2.83950
C         45.52068        45.72244        -2.67817
C         50.41889        28.83912         0.65660
C         49.04836        29.36608         0.53940
C         50.31529        31.64865         0.39901
C         49.09560        30.86484         0.80787
C         50.29969        33.11181         0.66951
C         48.94609        33.87019         0.85159
C         50.34204        35.96524         0.66650
C         49.16099        35.32927         1.39452
C         50.25384        37.36009         0.16927
C         48.89649        37.93633        -0.08096
C         50.02139        39.97210        -1.28600
C         48.82091        39.31228        -0.67933
C         49.83148        41.19819        -1.96035
C         48.74358        42.13250        -1.43888
C         49.22195        43.37070        -3.39946
C         48.21793        43.17636        -2.45102
C         51.48552        29.46229         0.72223
C         52.79969        31.74230         0.67108
C         51.90618        30.72304         0.10639
C         52.71404        32.97619         0.69180
C         51.60560        33.85782         1.16089
C         52.55181        35.99806        -0.05474
C         51.52254        35.25179         0.60482
C         52.51724        37.04309        -0.73060
C         51.44467        38.02904        -0.57299
C         52.06028        39.76902        -2.39504
C         51.20631        39.19068        -1.44860
C         51.89973        40.83695        -3.05750
C         50.77608        41.67498        -2.94732
C         50.37406        42.88931        -3.60542
O         38.15488        36.82329        -1.60058
O         38.22904        41.82771         2.43966
O         41.06511        45.21124        -1.20107
O         48.23200        28.88929        -0.53791
O         45.97348        31.21433         2.74887
O         36.28268        31.58665        -2.45854
O         50.31717        32.57415        -0.71218
O         47.09582        35.92500         2.53796
O         36.53858        43.53184        -0.20600
O         43.01098        28.56561         1.89276
O         39.85057        27.22801        -1.72493
O         45.24567        26.86159        -0.66000
O         41.79944        33.44887         2.15092
O         32.05952        31.06843        -0.13362
O         36.53416        34.42088         0.74668
O         45.46506        45.81143        -0.27294
O         46.47185        42.32037         1.16977
O         51.15626        38.31160         0.82035
O         34.91959        43.60238         2.97705
O         48.85961        30.99182         2.25212
O         43.81611        44.93850         1.38066
O         48.52999        38.11067        -1.50179
O         33.38260        40.56875        -1.21478
O         40.21609        46.97797         2.03405
O         31.65279        38.96734        -2.45755
H         32.30208        39.70484        -2.50788
O         35.77653        28.83544        -3.21428
H         34.97090        28.53488        -3.68299
O         48.37477        34.07536        -0.45532
H         48.89065        33.53037        -1.10183
O         32.01722        42.93017        -0.13116
H         32.41957        42.87780        -1.02368
O         51.66375        33.84193         2.57323
H         51.00010        34.48023         2.94221
O         37.24264        28.91435         1.13007
H         37.32791        29.86001         1.42749
O         38.29476        45.97894         3.46390
H         39.20132        46.35729         3.54492
O         49.52673        35.35364         2.78118
H         48.71165        35.15412         3.30582
O         43.47118        30.85637         2.90693
H         44.24841        30.63374         3.46688
O         39.60001        40.19776        -1.10626
H         38.96049        39.85074        -1.76500
O         48.07704        33.23222         3.05624
H         47.50107        32.57830         3.51379
O         38.33596        31.28933         1.20639
H         38.97072        31.20076         1.95133
O         43.85771        39.53366        -1.21918
H         42.98895        39.12591        -1.42761
O         41.90418        44.00199         2.72629
H         42.82105        43.64231         2.85293
O         42.98061        27.44837        -1.63498
H         43.92874        27.33550        -1.88474
O         49.38746        42.92015        -0.39720
H         50.13528        43.41155        -0.79963
O         39.86672        37.24831         2.19162
H         39.89474        38.14988         2.61528
O         32.37870        41.08712         2.98811
H         31.90805        41.12849         3.84548
O         39.13902        31.80867        -2.32107
H         38.56349        31.93895        -3.10432
O         40.09866        28.61209         1.68759
H         39.14245        28.44894         1.86532
O         52.03903        30.58420        -1.24895
H         52.29736        31.43850        -1.65031
O         41.71876        29.70885        -1.43165
H         41.75062        28.83049        -1.88111
O         39.97057        39.86452         2.55037
H         39.25076        40.47701         2.86299
O         44.24348        42.60349         2.39394
H         45.15082        42.95323         2.55320
