         324
 CSIRO Nanostructure Databank - Neutral Graphene Oxide Data Set
C          1.33964         1.88563         0.75060
C          1.25674         3.07102        -0.05598
C          2.55022         1.31854         1.03302
C          2.40720         3.66661        -0.48483
C          1.40877         6.73618        -1.34036
C          1.34182         8.09587        -0.96553
C          2.48439         5.93190        -1.00852
C          2.37766         8.65997        -0.24678
C          1.14916        10.80946         0.21742
C          1.11352        12.16403         0.39630
C          2.37783        10.07697         0.05339
C          2.29442        12.98556         0.11603
C          1.19885        15.19605         0.62447
C          1.23127        16.57592         0.81416
C          2.37954        14.42744         0.47574
C          2.45244        17.25572         0.97363
C          2.54560        18.66903         1.07705
C          3.79085         1.93080         0.62665
C          3.74500         3.19667        -0.12886
C          5.00540         1.39900         0.99185
C          4.97798         4.17260        -0.03110
C          3.65841         6.39302        -0.28592
C          3.54527         7.83214         0.12780
C          4.82372         5.66703        -0.00496
C          4.83511         8.60844         0.45227
C          3.60358        10.75718         0.17755
C          3.62046        12.21672         0.02674
C          4.83876        10.06448         0.26398
C          4.88517        12.92752         0.23740
C          3.64128        15.04070         0.60727
C          3.67836        16.45276         1.01192
C          4.88644        14.34236         0.40926
C          5.02364        17.21432         0.88668
C          3.74608        19.34703         0.94396
C          4.97781        18.67200         0.70113
C          6.21578         2.15588         0.86551
C          6.18389         3.55087         0.58212
C          7.44103         1.51574         1.17138
C          7.39252         4.28442         0.68604
C          6.02018         6.39217         0.66036
C          6.09327         7.87332         0.34695
C          7.35764         5.71561         0.44673
C          7.26803         8.56498         0.09692
C          6.06343        10.74748         0.12812
C          6.08221        12.19003         0.14674
C          7.29054        10.01496        -0.00608
C          7.32328        12.87874         0.01577
C          6.12916        15.03969         0.31106
C          6.18151        16.47003         0.38270
C          7.33348        14.30562         0.02162
C          7.31482        17.18881        -0.00711
C          6.13796        19.33201         0.29207
C          7.34314        18.62491         0.01678
C          8.64065         2.21407         1.14387
C          8.61263         3.60763         0.92306
C          9.94292         1.51295         1.46237
C          9.89267         4.34178         0.86349
C          8.51437         6.42636         0.21946
C          8.52537         7.85405        -0.03924
C          9.83444         5.78752         0.40753
C          9.69578         8.52034        -0.37655
C          8.49889        10.69625        -0.24346
C          8.51754        12.14331        -0.24761
C          9.72427         9.95853        -0.48193
C          9.70614        12.84449        -0.53529
C          8.53865        14.98898        -0.27639
C          8.51708        16.45683        -0.41669
C          9.72695        14.26706        -0.54958
C          9.85106        17.22001        -0.38019
C          8.56128        19.32691        -0.18910
C          9.82994        18.71248        -0.20922
C         11.14674         2.15737         0.80766
C         11.11890         3.58027         0.55469
C         12.29053         1.42148         0.60004
C         12.21468         4.23166         0.00857
C         11.01856         6.37321        -0.21931
C         10.90507         7.74081        -0.84671
C         12.19402         5.64836        -0.31666
C         12.20629         8.50572        -0.76924
C         10.92050        10.62400        -0.79094
C         10.90354        12.09270        -0.95601
C         12.18590         9.91392        -0.86327
C         12.20638        12.85687        -1.10914
C         10.99746        14.97315        -0.58282
C         11.02682        16.35008        -0.19987
C         12.21951        14.26652        -0.66183
C         12.22256        16.86010         0.29849
C         10.99321        19.51940        -0.32931
C         12.28046        19.03309         0.04988
C         13.48749         2.02262         0.07862
C         13.39150         3.42823        -0.36638
C         14.68823         1.34652        -0.01911
C         14.68003         4.16377        -0.69853
C         13.43302         6.33841        -0.66692
C         13.42894         7.77701        -0.76830
C         14.65287         5.64522        -0.68451
C         14.66904         8.48035        -0.87072
C         13.43080        10.61685        -0.96978
C         13.52904        12.11262        -1.27441
C         14.62859         9.90439        -0.98358
C         14.70115        12.77960        -0.56930
C         13.45362        14.89393        -0.33271
C         13.47378        16.25888         0.08887
C         14.66419        14.14085        -0.23930
C         14.69202        17.03300         0.19195
C         13.57161        19.29542        -0.37220
C         14.72545        18.46762        -0.02955
C         15.93410         2.01795        -0.30418
C         15.94448         3.43184        -0.51332
C         17.16349         1.33975        -0.21114
C         17.16188         4.13231        -0.51357
C         15.88253         6.34986        -0.70573
C         15.90974         7.75085        -0.83153
C         17.13501         5.60873        -0.46002
C         17.18711         8.42212        -1.00171
C         15.89673        10.66529        -1.09311
C         15.91758        12.05707        -0.56299
C         17.17375         9.90049        -1.14453
C         17.13389        12.67961        -0.21837
C         15.83309        14.81935         0.36462
C         15.90887        16.30955         0.34149
C         17.13868        14.02598         0.37903
C         17.14534        16.98667         0.40558
C         15.98372        19.08298        -0.11368
C         17.19814        18.39073         0.12341
C         18.40297         2.02221        -0.32260
C         18.39815         3.44906        -0.47122
C         19.64380         1.33776        -0.22744
C         19.65577         4.15762        -0.62658
C         18.45138         6.34222        -0.61979
C         18.39354         7.75451        -1.01327
C         19.68047         5.55823        -0.79845
C         19.68579         8.47784        -1.36570
C         18.39285        10.58012        -0.62515
C         18.38307        12.04540        -0.43589
C         19.67079         9.83960        -0.69028
C         19.59115        12.76322        -0.41097
C         18.44375        14.74169         0.52351
C         18.42863        16.31435         0.64598
C         19.64687        14.12224        -0.03240
C         19.70068        17.02294         0.46810
C         18.44459        19.06930         0.05022
C         19.70415        18.44914         0.23367
C         20.87793         2.01919        -0.36012
C         20.87058         3.42002        -0.62697
C         22.12798         1.32908        -0.24541
C         22.15744         4.01010        -1.15481
C         20.98413         6.28705        -0.62256
C         20.97115         7.74038        -1.02960
C         22.17899         5.54624        -1.20728
C         22.17656         8.42170        -0.99479
C         20.93806        10.62999        -0.67360
C         20.83241        12.10598        -0.88932
C         22.21074         9.90365        -0.87244
C         22.11333        12.88113        -0.97922
C         20.87965        14.84025        -0.02076
C         20.87752        16.21261         0.42325
C         22.11372        14.24394        -0.40660
C         22.13559        16.77460         0.70617
C         20.88904        19.25429         0.02070
C         22.16319        18.92414         0.51863
C         23.37189         2.00039        -0.20893
C         23.36595         3.51913        -0.32533
C         24.56842         1.32799         0.01841
C         24.69476         4.05688        -0.91931
C         23.48569         6.30225        -1.16065
C         23.44957         7.76214        -0.92296
C         24.74633         5.57521        -0.92649
C         24.66077         8.49361        -0.87945
C         23.46441        10.64009        -1.20805
C         23.42796        12.14795        -1.15412
C         24.71587         9.91029        -0.92757
C         24.68704        12.84423        -0.81731
C         23.35165        14.91673        -0.26207
C         23.36182        16.25032         0.26914
C         24.61022        14.26323        -0.51484
C         24.56963        17.01943         0.41109
C         23.46957        19.32920         0.20978
C         24.61294        18.49140         0.56822
C         25.84006         2.03660         0.19747
C         25.88123         3.48942        -0.16027
C         27.11141         1.32926         0.40625
C         27.19390         4.13974        -0.48842
C         25.92385         6.27139        -0.71300
C         25.93153         7.74125        -0.92107
C         27.19672         5.62686        -0.48158
C         27.22232         8.51773        -0.66185
C         25.92962        10.65688        -0.76551
C         25.87440        12.12217        -0.73821
C         27.13033         9.97659        -0.49936
C         27.14447        12.87333        -0.63562
C         25.77643        14.99514        -0.25898
C         25.76977        16.34545         0.18364
C         27.09068        14.35951        -0.44171
C         27.10550        16.89595         0.59732
C         25.83214        19.06285         0.85483
C         27.05904        18.27192         1.27779
C         28.33193         1.96399         0.30659
C         28.43802         3.34230        -0.26187
C         29.54265         1.33202         0.73501
C         29.71271         4.10264        -0.06028
C         28.36588         6.35058        -0.18765
C         28.38986         7.77992        -0.13181
C         29.65164         5.62113         0.01361
C         29.49158         8.51520         0.39607
C         28.40169        10.67317        -0.21399
C         28.41598        12.18122        -0.25255
C         29.48670         9.91866         0.44292
C         29.49859        12.96398         0.37449
C         28.23987        15.11764         0.17511
C         28.29737        16.55071        -0.28346
C         29.52021        14.36232         0.34083
C         29.56337        17.26619        -0.04205
C         28.31103        19.10580         1.03984
C         29.47698        18.64124         0.51044
C         30.73433         2.03527         0.87649
C         30.83995         3.40828         0.58756
C         32.01447         4.16878         0.88642
C         30.73648         6.28885         0.80156
C         30.64546         7.78762         0.99816
C         32.00004         5.53464         0.94690
C         31.86437         8.57489         1.28355
C         30.60573        10.67192         1.03097
C         30.65037        12.23342         0.92903
C         31.85750         9.91811         1.26915
C         31.90764        12.97947         0.98808
C         30.76070        15.07498         0.41449
C         30.81738        16.50613         0.21306
C         31.94799        14.31034         0.67699
C         31.96512        17.27054         0.35839
C         30.72392        19.37890         0.52161
C         31.90973        18.70172         0.39739
O         11.36543        12.59798        -2.28165
O         16.62613        10.46738        -2.36775
O         26.81252         8.10768        -2.02301
O         27.34935        13.81289        -1.75970
O          2.36197         4.63265        -1.49386
O         21.76885        10.30334         0.49458
O         16.30610        14.14737         1.57423
O          2.90779        12.68716        -1.17920
O          9.16473        16.91364        -1.64542
O         28.94931        11.40665        -1.39872
O         28.92527        17.13162        -1.41969
O         13.82230         3.61674        -1.76047
O         27.87371         3.48035        -1.61476
O         10.06357         5.41783         1.83262
O         21.26104        12.67372        -2.16415
O         17.84958         6.11267         0.72771
O         22.72633         6.02173        -2.44905
O         25.69022         3.20537         1.24514
O         22.14438        17.90593         1.50771
O         30.25245         6.85850         2.07422
O          4.66575         3.41651        -1.24285
O          4.53204        16.73299         2.17173
O         23.48746        11.42540        -2.43320
O         27.64541        15.72931         1.47285
O         30.25473        11.52088         2.17754
O         18.94036         9.87482         0.56424
O         12.17797        18.03384         1.04514
O         18.54229        15.40713         1.79665
O          3.94620         8.10463         1.51929
O         30.12816         4.94564        -1.18589
O         13.87514        12.19957        -2.68408
H         13.02897        12.13551        -3.18504
O         10.65450         7.50605        -2.28287
H         11.46014         7.09164        -2.65993
O          9.87067         0.12279         1.14185
H          9.72588         0.03568         0.17761
O         22.22691         3.50801        -2.49928
H         22.89368         4.05140        -2.98208
O          5.79135         6.26216         2.10217
H          5.03562         6.86420         2.31887
O         23.19201         4.08489         0.98198
H         23.96062         3.79751         1.53389
O         24.82800         3.58867        -2.28298
H         25.73741         3.79760        -2.59079
O         19.70945         8.74584        -2.79365
H         19.92424         7.91753        -3.27115
O         21.22331         6.27689         0.82466
H         20.43468         6.65737         1.26880
O         26.96300        18.06359         2.71194
H         27.38080        17.19601         2.90834
H          0.41041         1.40763         1.08867
H          0.28070         3.43474        -0.40122
H          2.60493         0.38200         1.60563
H          0.59174         6.29197        -1.92268
H          0.47658         8.70100        -1.26599
H          0.22135        10.23212         0.34331
H          0.18471        12.64564         0.73407
H          0.22427        14.70276         0.50670
H          0.29064        17.14496         0.82952
H          1.61355        19.24575         1.17095
H          5.04655         0.42508         1.50110
H          3.74297        20.44683         0.93288
H          7.44469         0.43977         1.39725
H          6.13422        20.42934         0.21006
H         10.09477         1.57129         2.57760
H          8.52317        20.42704        -0.16749
H         12.29995         0.35476         0.86925
H         10.87011        20.56111        -0.66494
H         14.72861         0.28218         0.25788
H         13.76079        20.16591        -1.01853
H         17.16642         0.25439        -0.03088
H         16.03410        20.15506        -0.35661
H         19.64423         0.24890        -0.06957
H         18.42465        20.14696        -0.17233
H         22.11105         0.23779        -0.09769
H         20.76687        20.17864        -0.56411
H         24.57013         0.22995         0.09851
H         23.66265        20.28724        -0.29564
H         27.07270         0.28989         0.76633
H         25.90163        20.15909         0.92693
H         29.49885         0.27757         1.04273
H         28.28569        20.12606         1.45513
H         31.61304         1.51837         1.28942
H         32.93764         3.62576         1.13919
H         32.91015         6.06948         1.25146
H         32.78593         8.03791         1.54876
H         32.76864        10.47255         1.53375
H         32.83141        12.46545         1.28701
H         32.91877        14.82467         0.69822
H         32.94313        16.79436         0.51604
H         30.71200        20.46341         0.70207
H         32.85852        19.25439         0.45111
