         620
 CSIRO Nanostructure Databank - Neutral Graphene Oxide Data Set
C         22.98120        27.35396        -0.21013
C         22.97328        28.73939        -0.11220
C         23.00137        31.64252        -0.64452
C         23.04584        32.96622        -0.91942
C         23.02927        35.90719        -1.00241
C         23.02918        37.27631        -1.08586
C         23.01990        40.20681        -1.11751
C         23.00930        41.58190        -1.09216
C         22.96679        44.50382        -0.76644
C         22.91691        45.85433        -0.62981
C         25.41803        24.53951        -0.28056
C         24.22920        25.22157        -0.31425
C         25.43158        27.36566        -0.15792
C         24.20302        26.64812        -0.23549
C         25.41050        28.79081        -0.08503
C         24.17120        29.47196        -0.07222
C         25.44075        31.66330        -0.14150
C         24.12191        30.97194         0.10889
C         25.44690        33.06137        -0.36602
C         24.23223        33.75572        -0.66789
C         25.46557        35.90022        -0.70680
C         24.23791        35.17214        -0.79969
C         25.46283        37.32315        -0.82394
C         24.23780        38.03029        -0.99556
C         25.46955        40.18139        -1.03462
C         24.23507        39.46642        -1.05396
C         25.45851        41.63098        -1.03340
C         24.21505        42.33447        -1.01681
C         25.42700        44.47180        -0.91088
C         24.20557        43.77213        -0.95218
C         25.44754        45.93594        -1.00453
C         24.09852        46.68624        -0.87501
C         25.36102        48.72467        -0.34057
C         24.17147        48.07046        -0.40242
C         27.95812        23.08358        -0.12405
C         27.90785        24.51256        -0.04784
C         26.66649        25.22484        -0.16468
C         27.90504        27.36545        -0.04625
C         26.67304        26.65076        -0.12241
C         27.88561        28.80636        -0.01732
C         26.65856        29.51055        -0.01686
C         27.89791        31.65558         0.00971
C         26.66076        30.94766        -0.03505
C         27.89222        33.08639        -0.05833
C         26.68511        33.78592        -0.32795
C         27.94048        35.90742        -0.48337
C         26.69970        35.20035        -0.50773
C         27.95012        37.33892        -0.62979
C         26.70106        38.04531        -0.78315
C         27.96987        40.15540        -1.06941
C         26.68674        39.45049        -0.93904
C         27.95470        41.68152        -1.09021
C         26.66778        42.37052        -0.95613
C         27.90909        44.51256        -0.68478
C         26.67198        43.78107        -0.83666
C         27.90662        45.93725        -0.56677
C         26.67988        46.66661        -0.68260
C         27.87193        48.78971        -0.36767
C         26.63702        48.06075        -0.51420
C         27.89816        50.20938        -0.35281
C         30.39303        23.04870         0.08872
C         29.16062        22.39636        -0.10847
C         30.37279        24.49607         0.49886
C         29.11863        25.22952         0.10296
C         30.39724        27.33739         0.03396
C         29.13755        26.64595         0.05081
C         30.37443        28.78737        -0.17675
C         29.11733        29.53036        -0.02144
C         30.38606        31.64686         0.26367
C         29.13761        30.93587         0.04131
C         30.29192        33.10443         0.68093
C         29.10761        33.81331         0.06909
C         30.44504        35.87040        -0.24002
C         29.14179        35.17688        -0.21007
C         30.44942        37.35163        -0.39320
C         29.16250        38.07039        -0.52156
C         30.42232        40.21187        -0.56616
C         29.20933        39.47270        -0.66719
C         30.39517        41.66355        -0.63763
C         29.18646        42.39069        -0.73498
C         30.37199        44.51910        -0.36786
C         29.15437        43.80594        -0.59040
C         30.36214        45.94803        -0.20603
C         29.12133        46.65189        -0.33111
C         30.32696        48.80625        -0.07748
C         29.10522        48.08196        -0.26109
C         30.32283        50.22669        -0.07425
C         29.08169        50.90316        -0.22837
C         32.86816        20.24479         0.15606
C         31.68207        20.93043         0.03659
C         32.86685        23.07107         0.24767
C         31.63574        22.35050         0.12075
C         32.86920        24.51572         0.24235
C         31.65662        25.23163         0.21700
C         32.89534        27.37522         0.16074
C         31.63821        26.65209         0.11188
C         32.92379        28.78954         0.25336
C         31.69111        29.55978        -0.00734
C         32.79409        31.63292         0.93452
C         31.58263        30.97635         0.37650
C         32.80476        33.13180         1.00628
C         31.60069        33.85014         0.54296
C         32.91936        35.93417         0.30424
C         31.65785        35.18971         0.28140
C         32.92216        37.34372         0.08774
C         31.61517        38.10265         0.20277
C         32.87786        40.19450        -0.30975
C         31.65723        39.53378        -0.27713
C         32.86459        41.64123        -0.61793
C         31.60713        42.39778        -0.52840
C         32.83698        44.52050        -0.08517
C         31.60485        43.80242        -0.36745
C         32.81165        45.95040         0.21631
C         31.55860        46.66072         0.07161
C         32.74581        48.81504         0.41159
C         31.55639        48.09579         0.14554
C         32.77271        50.23324         0.33817
C         31.56304        50.94839         0.07837
C         32.81539        53.03728         0.15215
C         31.62052        52.36080         0.00533
C         35.36008        18.78168         0.58033
C         35.33825        20.20390         0.47558
C         34.10101        20.92844         0.32135
C         35.33820        23.07303         0.39171
C         34.09664        22.35686         0.31721
C         35.34729        24.50412         0.36519
C         34.11889        25.22374         0.26876
C         35.36431        27.36063         0.37165
C         34.12409        26.65140         0.26763
C         35.36650        28.78528         0.48274
C         34.13838        29.47579         0.48050
C         35.38843        31.67756         0.86179
C         34.11408        30.90491         0.87895
C         35.38646        33.05994         0.92141
C         34.13240        33.84993         0.98323
C         35.38125        35.94871         0.40240
C         34.14030        35.26020         0.52955
C         35.38416        37.35335         0.13748
C         34.13547        38.04956         0.01434
C         35.35430        40.18759        -0.08728
C         34.13335        39.49704        -0.12409
C         35.33479        41.67618         0.14750
C         34.13402        42.40976        -0.41539
C         35.26513        44.46716         0.42722
C         34.03303        43.83249        -0.05603
C         35.23774        45.93741         0.76821
C         33.96560        46.63531         0.57395
C         35.26306        48.82698         0.81430
C         33.94152        48.08758         0.97082
C         35.23999        50.20870         0.74211
C         34.01232        50.94654         0.50565
C         35.29388        53.10580         0.46655
C         34.03683        52.35651         0.39115
C         35.32836        54.51594         0.33605
C         37.78749        18.74439         0.78172
C         36.53480        18.08174         0.75962
C         37.79939        20.16896         0.62104
C         36.56455        20.91161         0.53664
C         37.78369        23.07637         0.58311
C         36.56267        22.35274         0.48864
C         37.81815        24.48647         0.52735
C         36.58664        25.21833         0.43484
C         37.83797        27.36776         0.50214
C         36.59450        26.64172         0.43340
C         37.85644        28.78057         0.59295
C         36.61074        29.51953         0.63748
C         37.90906        31.61526         1.11918
C         36.61301        30.91079         0.79016
C         37.90667        33.08721         0.80104
C         36.65517        33.85288         1.15768
C         37.82813        35.95951         0.47661
C         36.62557        35.26299         0.59130
C         37.85326        37.37338         0.24852
C         36.62232        38.06785         0.10220
C         37.84876        40.20479        -0.04676
C         36.61133        39.50510        -0.01676
C         37.87531        41.66924        -0.26890
C         36.57665        42.39591        -0.31250
C         37.81415        44.58647         0.21963
C         36.54360        43.87194        -0.06706
C         37.75764        45.92546         0.88877
C         36.50463        46.70093         0.80249
C         37.79821        48.78722         0.94135
C         36.52193        48.08740         0.90434
C         37.80196        50.25365         1.08235
C         36.47950        50.98810         0.97862
C         37.75561        53.12297         0.68194
C         36.51273        52.42892         0.67342
C         37.75681        54.54445         0.57648
C         36.51881        55.21275         0.42024
C         40.24166        16.08303         1.82485
C         39.05547        16.70309         1.48989
C         40.26825        18.72397         0.82659
C         39.02716        18.04725         1.02043
C         40.27900        20.14680         0.53691
C         39.03024        20.85007         0.56823
C         40.32516        23.04195         0.56892
C         39.03072        22.31325         0.71544
C         40.30017        24.50496         0.39803
C         39.07213        25.20778         0.50246
C         40.30657        27.34672         0.49339
C         39.07193        26.63905         0.48314
C         40.34383        28.75506         0.46822
C         39.11206        29.48646         0.56790
C         40.34676        31.62227         0.45342
C         39.13923        30.89677         0.63457
C         40.33778        33.03804         0.50047
C         39.10679        33.75504         0.66110
C         40.39193        36.00791         0.63956
C         39.10360        35.24524         0.74241
C         40.34654        37.42175         0.19467
C         39.10702        38.09042         0.15608
C         40.31863        40.24932        -0.12450
C         39.08482        39.52059        -0.01721
C         40.34365        41.69575        -0.01189
C         39.10154        42.43730         0.02611
C         40.28427        44.56036         0.44439
C         39.07547        43.81251         0.25682
C         40.31133        45.94196         0.60939
C         39.07043        46.66950         0.94773
C         40.27937        48.85255         0.76479
C         39.02802        48.13630         0.88164
C         40.27106        50.28556         0.70121
C         39.04912        50.99563         0.81615
C         40.23917        53.12908         0.55023
C         39.01414        52.40830         0.71731
C         40.20914        54.56732         0.50043
C         39.01021        55.26628         0.57825
C         40.19902        57.41153         0.82594
C         39.03364        56.72101         0.69697
C         42.73387        16.14460         1.98531
C         41.48586        16.73953         1.62010
C         42.76899        18.63526         0.66515
C         41.48346        18.03595         1.04858
C         42.75978        20.13178         0.26008
C         41.48706        20.83732         0.35652
C         42.80439        23.01387         0.17018
C         41.49063        22.29201        -0.02004
C         42.78284        24.43177         0.20278
C         41.54758        25.14931         0.33563
C         42.88705        27.34205         0.33681
C         41.56094        26.59071         0.57355
C         42.81323        28.78665         0.07384
C         41.59320        29.46682         0.28731
C         42.77615        31.57037        -0.12113
C         41.58769        30.89324         0.21317
C         42.69822        33.03682        -0.29470
C         41.68342        33.72117         0.61295
C         42.83919        35.97917        -0.09992
C         41.68226        35.25239         0.50164
C         42.77083        37.43657        -0.36389
C         41.55276        38.11877        -0.15032
C         42.78345        40.25580        -0.41036
C         41.53730        39.55079        -0.25235
C         42.79660        41.70767        -0.24562
C         41.55169        42.37739         0.04786
C         42.72119        44.61632         0.01702
C         41.57424        43.80009         0.53899
C         42.76320        46.04630         0.39890
C         41.54313        46.70492         0.59962
C         42.74705        48.86764         0.57623
C         41.50972        48.14405         0.68268
C         42.72861        50.27520         0.50489
C         41.50703        51.00696         0.54550
C         42.71842        53.19647         0.46378
C         41.47906        52.43666         0.48200
C         42.73960        54.57396         0.51793
C         41.47510        55.32968         0.20433
C         42.67196        57.39090         0.90107
C         41.47369        56.74545         0.71475
C         43.93371        16.80993         1.82970
C         45.23314        18.80509         1.01448
C         44.02237        18.07645         1.18280
C         45.22390        20.15925         0.53650
C         44.03043        20.87140         0.33207
C         45.26052        23.02110        -0.00879
C         44.02145        22.29952         0.16778
C         45.21747        24.39990        -0.26908
C         44.01223        25.15503        -0.04456
C         45.14898        27.29463        -0.71520
C         44.01098        26.55390        -0.15440
C         45.20066        28.75755        -0.58284
C         43.99747        29.47709        -0.31729
C         45.17889        31.58910        -0.88302
C         43.97953        30.89878        -0.45049
C         45.17928        33.03042        -1.05342
C         43.89342        33.74251        -0.84244
C         45.18172        35.97209        -1.07083
C         43.91296        35.23612        -0.81934
C         45.21918        37.41508        -0.79521
C         43.99012        38.12975        -0.61186
C         45.30342        40.30443        -0.59911
C         43.97767        39.56475        -0.60733
C         45.18026        41.78663        -1.04850
C         43.97302        42.41796        -0.38507
C         45.22309        44.57078         0.17621
C         43.97984        43.89473        -0.27627
C         45.24953        46.03624         0.27755
C         44.00620        46.74573         0.36641
C         45.26087        48.84072         0.51483
C         44.00646        48.15873         0.48428
C         45.28626        50.26442         0.55465
C         44.01179        50.98227         0.31385
C         45.24337        53.20070         0.67161
C         44.00264        52.48157         0.33435
C         45.24848        54.58548         0.73729
C         43.98302        55.31932         0.65430
C         43.91884        56.69437         0.82060
C         47.65268        18.94037         1.52858
C         46.47463        18.26801         1.53558
C         47.80455        20.21601         0.81329
C         46.50696        20.86380         0.31558
C         47.73694        23.00700         0.06991
C         46.52015        22.32348         0.09760
C         47.76779        24.37544        -0.47106
C         46.44294        25.07048        -0.72137
C         47.70853        27.30681        -0.84160
C         46.44799        26.55038        -0.94031
C         47.66724        28.70412        -0.94400
C         46.40107        29.43003        -0.87800
C         47.61010        31.51596        -1.48208
C         46.36930        30.84808        -1.04382
C         47.60299        33.02752        -1.61178
C         46.35424        33.75701        -1.29434
C         47.61863        35.91115        -1.38979
C         46.42746        35.20240        -1.24900
C         47.64953        37.34784        -1.33264
C         46.44578        38.08291        -1.05617
C         47.58095        40.05240        -1.78705
C         46.42432        39.49347        -1.24278
C         47.62620        42.19868        -1.35139
C         46.47072        42.55381        -0.72625
C         47.75657        44.58391         0.01291
C         46.51141        43.80312         0.06397
C         47.73914        45.95983         0.19144
C         46.48604        46.69569         0.33835
C         47.73459        48.82601         0.55973
C         46.49916        48.12375         0.48888
C         47.74513        50.25871         0.72021
C         46.48940        50.95759         0.69761
C         47.79081        53.18409         0.97456
C         46.46145        52.42154         0.93085
C         47.71118        54.62447         0.70962
C         46.51945        55.27944         0.72448
C         50.16493        20.57447         1.59137
C         48.98820        21.08340         1.00981
C         50.18390        23.18265         0.49580
C         48.97777        22.41368         0.51384
C         50.17821        24.56885         0.05298
C         48.97792        25.21044        -0.32946
C         50.16630        27.35689        -0.56527
C         48.94743        26.60753        -0.59948
C         50.14726        28.76935        -0.78910
C         48.90705        29.44767        -0.97813
C         50.11145        31.58163        -1.25454
C         48.90123        30.83930        -1.23360
C         50.07881        33.02641        -1.48603
C         48.90522        33.73072        -1.57472
C         50.11499        35.90169        -1.23296
C         48.88837        35.22452        -1.84961
C         50.14977        37.39649        -1.43887
C         48.88608        38.07494        -1.48364
C         50.08825        40.34387        -1.70532
C         48.86087        39.47446        -1.67792
C         50.08007        41.78084        -1.21606
C         48.97021        42.56512        -0.97237
C         50.22900        44.63093        -0.33494
C         49.03374        43.79134        -0.06479
C         50.23485        45.99888        -0.07864
C         48.97931        46.71451         0.15917
C         50.21538        48.86446         0.26137
C         48.95767        48.09161         0.36147
C         50.25769        50.20105         0.97180
C         48.97414        50.98068         0.79086
C         50.26789        53.04651         0.61079
C         49.03588        52.39863         0.77236
C         51.33904        21.30691         1.56828
C         52.66266        23.24697         0.75732
C         51.39365        22.58768         0.96636
C         52.65584        24.55150         0.09863
C         51.39564        25.30106        -0.02585
C         52.64368        27.43530        -0.34418
C         51.40356        26.67649        -0.34238
C         52.61288        28.84923        -0.54917
C         51.36920        29.52325        -0.78287
C         52.60411        31.72558        -0.75774
C         51.34025        30.92625        -1.00699
C         52.64377        33.07860        -1.39858
C         51.37809        33.72364        -1.70401
C         52.64093        35.95705        -1.47162
C         51.38416        35.24580        -1.71764
C         52.60346        37.36462        -1.30477
C         51.35142        38.08746        -1.41240
C         52.62634        40.25257        -0.99278
C         51.40458        39.57691        -1.52732
C         52.65758        41.64809        -0.78663
C         51.42658        42.44214        -1.04458
C         52.71387        44.52637        -0.18184
C         51.46731        43.91637        -0.67402
C         52.70861        45.92461         0.10579
C         51.49444        46.67000        -0.00216
C         52.77339        48.79239         0.51447
C         51.52491        48.12639         0.10133
C         52.77399        50.20415         0.66575
C         51.52540        50.95575         0.63861
C         51.48125        52.32859         0.50016
C         55.11593        23.35976         0.98737
C         53.89846        22.67124         1.07996
C         55.20426        24.71493         0.61963
C         53.98046        25.35609         0.08604
C         55.06845        27.60222         0.15821
C         53.85869        26.80326        -0.00778
C         55.07906        28.91253        -0.48081
C         53.86305        29.56957        -0.69856
C         55.09905        31.65709        -1.24990
C         53.87064        30.96565        -1.00415
C         55.11766        33.10078        -1.47986
C         53.85106        33.78936        -1.49757
C         55.09168        35.93748        -1.41828
C         53.85343        35.23522        -1.53319
C         55.04930        37.33805        -1.09452
C         53.82291        38.05964        -1.07425
C         55.01121        40.12152        -0.40331
C         53.80627        39.47951        -0.81832
C         55.03187        41.53147        -0.15278
C         53.86014        42.30525        -0.36334
C         55.08459        44.41113         0.29259
C         53.88777        43.75288        -0.10158
C         55.09109        45.78836         0.62412
C         53.92136        46.57603         0.50052
C         55.15138        48.70703         1.03712
C         53.94681        48.02361         0.70881
C         55.16460        50.10968         1.09279
C         54.00202        50.84955         0.91831
C         57.69981        24.83530         0.80045
C         56.42584        25.44494         0.61724
C         57.64955        27.60237         0.06041
C         56.40242        26.90309         0.43673
C         57.63238        28.88844        -0.52271
C         56.33574        29.43836        -1.10152
C         57.50906        31.57593        -1.75184
C         56.29781        30.93347        -1.26836
C         57.52431        33.02139        -1.99501
C         56.32007        33.81090        -1.75212
C         57.53093        36.08106        -1.62024
C         56.32675        35.25760        -1.64922
C         57.51338        37.34234        -0.94036
C         56.25285        38.00277        -0.70576
C         57.38750        39.95294         0.33571
C         56.20063        39.34787        -0.27941
C         57.40407        41.40808         0.55559
C         56.27761        42.15090         0.27580
C         57.61400        44.30534         0.71760
C         56.34591        43.63527         0.29925
C         57.59624        45.72439         1.12396
C         56.30866        46.41380         1.20013
C         57.68804        48.55170         1.45928
C         56.35625        47.93207         1.41216
C         58.86826        25.55982         0.72292
C         60.08942        27.62596         0.07856
C         58.87757        26.93589         0.30796
C         60.07277        28.91020        -0.44049
C         58.85714        29.53457        -0.79931
C         60.06266        31.66248        -1.61662
C         58.87492        30.82726        -1.53686
C         59.98200        32.86525        -2.26896
C         58.72515        33.49447        -2.51726
C         59.90954        36.51000        -2.15678
C         58.73984        35.75952        -2.28294
C         59.92218        37.61573        -1.30901
C         58.73549        38.03334        -0.69171
C         59.96416        39.99822         0.41794
C         58.72527        39.22210         0.18048
C         59.92483        41.23866         0.92895
C         58.66864        42.00385         1.08485
C         60.04574        44.25404         1.33407
C         58.76972        43.50216         1.22874
C         60.03134        45.60354         1.41055
C         58.78685        46.36380         1.40614
C         58.81633        47.80034         1.55227
O         51.36557        34.50583        -2.95731
O         57.93842        39.10489         1.40657
O         39.76638        35.76234         1.96189
O         57.33190        44.12519        -0.71880
O         37.18085        44.66148        -1.11499
O         33.36783        33.66444         2.24364
O         42.79775        19.05410        -0.73817
O         47.15697        24.40830        -1.81330
O         58.48218        42.66166         2.39380
O         44.08000        51.74656        -0.95896
O         42.73780        33.36041        -1.71257
O         55.66822        27.60051         1.52658
O         37.17753        42.00777        -1.55568
O         47.10046        52.78776         2.20781
O         33.73302        42.03442        -1.75621
O         42.76800        35.76178         1.35884
O         31.15523        29.25624        -1.33806
O         38.44997        46.06510         2.15847
O         56.07762        47.01488         2.52339
O         53.48032        24.65148        -1.10399
O         50.84261        48.82583        -1.04127
O         35.23086        44.87826         1.82313
O         42.43795        26.97954         1.68496
O         47.40073        20.14136        -0.59445
O         45.78798        43.85535         1.34067
O         58.15945        30.78084        -2.81945
O         44.16225        35.73802        -2.16355
O         24.73195        46.45994        -2.16963
O         37.08554        50.70212         2.29475
O         43.18894        44.49024        -1.36798
O         47.52827        41.29434        -2.41846
O         30.74359        36.51627        -1.54946
O         33.33315        31.02243         2.14406
O         58.77265        34.71281        -3.20915
O         51.59362        43.46657        -2.09333
O         50.97863        40.09692        -2.83403
O         39.89021        22.67084         1.90419
O         47.49008        32.15952        -2.80084
O         45.58529        26.88889        -2.07084
O         28.08374        40.89991        -2.33208
O         36.71596        34.03161         2.62493
H         37.47564        34.62459         2.81734
O         45.70386        40.37823         0.80573
H         45.62032        39.48251         1.19586
O         41.24747        22.32446        -1.47245
H         41.95016        21.79438        -1.90696
O         30.01222        33.09341         2.12199
H         30.83608        32.83138         2.58806
O         49.23472        43.23250         1.29627
H         48.35294        43.15919         1.72364
O         42.15281        33.40126         1.95357
H         41.66608        33.97343         2.58488
O         56.29737        28.87967        -2.47694
H         56.98468        29.37781        -2.99012
O         48.94306        35.42922        -3.27863
H         48.32371        34.80241        -3.70771
O         52.58147        32.00103         0.71169
H         52.66318        31.13494         1.16696
O         50.02668        35.66360         0.20166
H         50.79181        36.09645         0.63552
O         23.82494        31.17766         1.54198
H         23.82609        32.14572         1.70116
O         41.86609        43.69703         1.98143
H         41.06996        43.33829         2.42775
O         37.99439        31.56073         2.59994
H         37.35447        32.23379         2.94343
O         41.48853        55.46286        -1.27639
H         42.31425        55.93753        -1.51264
O         30.30858        24.44941         1.99442
H         29.49079        23.95801         2.22600
O         33.71893        48.06295         2.43754
H         33.91254        48.96183         2.78034
O         35.32008        41.86534         1.59362
H         34.52657        41.42608         1.96414
O         44.91072        41.84741        -2.46051
H         45.75069        41.65044        -2.93802
O         31.31234        38.16779         1.63952
H         32.09863        38.52832         2.10056
O         50.33195        49.85823         2.40047
H         50.22624        50.68828         2.91213
H         22.03435        26.79664        -0.24781
H         22.00890        29.26186        -0.05306
H         22.08799        31.07539        -0.87291
H         22.17733        33.44438        -1.39417
H         22.07247        35.37296        -1.07184
H         22.07068        37.79108        -1.23162
H         22.05813        39.67991        -1.16566
H         22.04140        42.09809        -1.13294
H         22.04038        43.93359        -0.61390
H         21.97990        46.34674        -0.32981
H         25.39806        23.44308        -0.33015
H         23.27805        24.67520        -0.38957
H         25.36132        49.77545        -0.01959
H         23.24304        48.57319        -0.09339
H         27.03510        22.50972        -0.27294
H         26.96525        50.77632        -0.46962
H         29.13354        21.31141        -0.27838
H         29.04978        52.00048        -0.23715
H         32.84469        19.14844         0.11433
H         30.75488        20.35650        -0.08770
H         32.80230        54.13132         0.06973
H         30.71003        52.94330        -0.18625
H         34.42002        18.21613         0.54792
H         34.40274        55.08558         0.18472
H         36.48965        16.98883         0.85986
H         36.49124        56.30567         0.32215
H         40.23403        15.06743         2.24582
H         38.11191        16.16343         1.64901
H         40.18512        58.49256         1.03100
H         38.08362        57.26424         0.78592
H         42.72479        15.14758         2.44865
H         42.68386        58.46177         1.15324
H         44.84634        16.31725         2.19090
H         44.83670        57.27743         0.97326
H         48.51808        18.50718         2.04932
H         46.44695        17.29149         2.03724
H         48.63274        55.18958         0.51129
H         46.51988        56.36851         0.57799
H         50.17817        19.56275         2.01803
H         50.30758        54.14225         0.55716
H         52.24890        20.85699         1.98582
H         52.40181        52.89661         0.30394
H         56.02368        22.83071         1.30848
H         53.93198        21.64649         1.47435
H         56.09557        50.64017         1.33295
H         54.04061        51.94106         1.03346
H         57.75528        23.76020         1.02067
H         57.77299        49.64631         1.41371
H         59.83208        25.06203         0.90129
H         61.04627        27.12528         0.28238
H         61.02654        29.41791        -0.63782
H         61.01919        31.31906        -1.20081
H         60.89081        33.44630        -2.47864
H         60.80725        36.21457        -2.71386
H         60.85607        38.17385        -1.16632
H         60.93621        39.50349         0.28010
H         60.86422        41.74069         1.19900
H         60.99486        43.70735         1.42255
H         60.97326        46.15973         1.52604
H         59.79755        48.29123         1.62960
