         274
 CSIRO Nanostructure Databank - Neutral Graphene Oxide Data Set
C        -11.17360         0.58533        -0.22211
C        -10.06460         1.28244        -0.94009
C         -8.87696         0.44547        -1.35004
C         -7.58972         1.04427        -1.75253
C         -6.35657         0.48480        -1.35145
C         -5.12617         1.38694        -1.38583
C         -3.79920         0.56765        -1.18516
C         -2.59282         1.44442        -1.61290
C         -1.29104         0.65798        -1.84037
C          0.01389         1.42019        -1.77055
C          1.29660         0.64898        -1.66049
C          2.40480         1.17327        -1.03649
C          3.64269         0.31620        -0.71530
C          4.92021         1.11284        -0.38177
C          6.17984         0.49274        -0.52503
C          7.40148         1.15056        -0.00996
C          8.72899         0.45719        -0.05100
C          9.80636         0.90927         0.95677
C         11.13059         0.28945         0.56331
C         -9.97475         2.77601        -0.89004
C         -8.90140         3.47417        -0.44868
C         -7.68236         2.78586         0.06406
C         -6.37056         3.43796        -0.20999
C         -5.14232         2.58342        -0.36888
C         -3.81109         3.24155        -0.14569
C         -2.51237         2.58740        -0.59492
C         -1.25649         3.38317        -0.60303
C         -0.03327         2.83943        -1.29420
C          1.24853         3.47395        -0.85629
C          2.47394         2.61775        -0.68646
C          3.53370         3.13371         0.27770
C          4.83822         2.40258         0.17786
C          5.97502         3.02240         0.88966
C          7.25382         2.21743         1.06423
C          8.52975         3.05305         1.16532
C          9.75014         2.40864         1.08047
C         -8.80941         4.97056        -0.65219
C         -7.52194         5.61044        -0.13607
C         -6.31730         4.78753         0.07018
C         -5.02993         5.45902         0.41984
C         -3.68921         4.68075         0.36211
C         -2.54533         5.47486        -0.24686
C         -1.31656         4.85617        -0.41143
C         -0.07601         5.57219        -0.26913
C          1.15110         4.72310         0.00958
C          2.45826         5.50934        -0.15876
C          3.65952         4.65777         0.26742
C          4.78910         5.28876         0.67798
C          5.97170         4.50963         1.13343
C          7.27362         5.22210         1.29711
C          8.46833         4.46152         1.33458
C         -7.49672         6.97226        -0.09518
C         -6.39159         7.73727         0.59171
C         -5.05586         6.97037         0.48066
C         -3.87147         7.68496        -0.10213
C         -2.59776         6.92846        -0.33163
C         -1.25122         7.73280        -0.20551
C         -0.06615         6.92055         0.03865
C          1.12881         7.57682         0.60561
C          2.40505         6.82825         0.58670
C          3.69396         7.63527         0.53405
C          4.80665         6.74309         1.13430
C          6.14586         7.47595         0.99695
C          7.31978         6.60637         1.36130
C         -6.26586         9.22661         0.34886
C         -5.09381         9.88430         0.30261
C         -3.82475         9.18968        -0.05442
C         -2.50945         9.81702         0.21737
C         -1.33353         9.13539         0.26516
C         -0.09617         9.79146         0.89252
C          1.23474         9.09745         0.54321
C          2.41147         9.59032         1.36905
C          3.59254         8.92260         1.33452
C          4.84040         9.42263         1.90998
C          6.02213         8.78137         1.76869
C        -11.14770        -0.72769         0.08137
C         -9.89365        -1.52137        -0.00002
C         -8.73571        -0.89438        -0.69697
C         -7.53246        -1.69563        -1.08491
C         -6.26462        -0.91602        -1.14401
C         -5.00205        -1.59910        -1.19680
C         -3.85920        -0.90264        -1.60068
C         -2.56238        -1.61195        -1.69635
C         -1.30394        -0.82658        -1.98464
C         -0.01813        -1.63925        -2.23586
C          1.28639        -0.77858        -2.14466
C          2.60556        -1.49057        -2.13941
C          3.86652        -0.61949        -1.91757
C          5.16870        -1.45540        -1.83867
C          6.35806        -0.81632        -1.19373
C          7.58149        -1.62289        -0.91993
C          8.89873        -0.90793        -0.71190
C          9.88788        -1.79626         0.07863
C         11.17413        -1.00073         0.19196
C         -9.84602        -2.98797         0.22019
C         -8.75127        -3.73430        -0.05725
C         -7.55574        -3.15513        -0.76390
C         -6.21440        -3.77896        -0.46025
C         -4.94278        -2.99535        -0.63859
C         -3.59236        -3.74788        -0.49167
C         -2.39853        -2.93539        -1.00245
C         -1.00319        -3.13514        -0.36954
C          0.07006        -2.94232        -1.42689
C          1.38751        -3.62304        -1.29910
C          2.64118        -2.94034        -1.76746
C          3.81672        -3.60385        -1.63633
C          5.14370        -2.98285        -2.03434
C          6.30702        -3.67249        -1.30208
C          7.60820        -2.96091        -1.16584
C          8.85096        -3.73980        -1.05548
C          9.97690        -3.15933        -0.57507
C         -8.72802        -5.20044         0.37096
C         -7.32508        -5.66955         0.74850
C         -6.30126        -5.29615        -0.27883
C         -4.34134        -4.86985         1.83151
C         -3.28050        -4.14733         0.98952
C         -2.00394        -4.98466         0.94885
C         -0.89832        -4.45359         0.37811
C          0.47246        -5.02089         0.71540
C          1.55440        -4.73945        -0.31976
C          2.64108        -5.53478        -0.47756
C          3.76314        -5.06872        -1.34186
C          5.00604        -5.89500        -1.38275
C          6.29646        -5.15608        -1.17910
C          7.57236        -5.92430        -1.14084
C          8.83776        -5.17891        -1.53460
C         -7.07074        -6.39498         1.84914
C         -5.74931        -6.96606         2.34054
C         -4.46390        -6.34285         1.77727
C         -3.29314        -7.03994         1.75785
C         -1.95167        -6.31609         1.67527
C         -0.75114        -7.16354         1.25149
C          0.41828        -6.52116         0.98618
C          1.79299        -6.97287         1.39185
C          2.99059        -6.65893         0.49255
C          3.75149        -7.81246        -0.18632
C          4.99107        -7.32251        -0.89490
C          6.30429        -8.02341        -0.69161
C          7.56365        -7.25291        -0.89210
C         -5.74565        -8.46326         2.13999
C         -4.60318        -9.15260         2.10592
C         -3.26236        -8.47736         2.25344
C         -2.18528        -9.28271         1.54832
C         -0.89730        -8.64256         1.13962
C          0.23997        -9.58881         0.94799
C          1.51401        -9.45902         1.26288
C          2.81575        -9.61295         1.46248
C          3.81260        -9.18857         0.43534
C          5.14556        -9.83864         0.52976
C          6.29360        -9.26057         0.12015
O          1.65704         6.89703         1.83984
O          6.04203        -4.27867         0.00701
O          8.41014         1.49425        -1.03072
O          9.51416         0.40059         2.29461
H          8.62221         0.74700         2.56818
O          1.97412        -7.13628         2.59569
O         -0.07608         2.55928        -2.72102
O          6.44110         7.76397        -0.38310
H          5.55679         8.00043        -0.82333
O          5.60807         3.58842         2.21765
O          3.92490         7.96963        -0.83169
O         -4.88731        -4.26099         2.75443
O         -2.81185         2.10739        -2.87260
H         -1.92387         2.32769        -3.24987
O         -9.65545        -5.43143         1.41902
H         -9.38653        -4.90405         2.19905
O         -5.76638        -6.10978        -0.99828
O         -4.13139         8.46526        -1.31091
O         -4.92700         6.20146         1.69563
O          3.08774         2.80188         1.72197
O         -2.49685        -2.87597        -2.44863
O         -7.75357        -2.70692        -2.13777
O         -1.98622        -8.95532         0.16727
O         -4.46311         2.41558         0.89193
O          0.37404        -4.06104        -2.28716
O          6.16554        -0.82004        -2.69052
O          1.00725         4.28453         1.38496
H          1.07969         5.09723         1.94817
O         -9.94630         0.72167        -2.31374
O          2.05291         1.80386         1.66995
H          1.23325         2.36227         1.77236
O          5.34401        -3.22713        -3.44311
H          5.79582        -2.43579        -3.81588
O          4.18032        -5.78156        -2.57157
O         -1.58859         2.49247         0.53916
O         -5.64319        -3.02983         0.65805
O          1.52498         9.41482        -0.84156
H          2.42461         9.02557        -1.04729
O         -3.53129         0.33436         0.22381
H         -4.35584         0.05669         0.67734
O         -1.88110         7.45345        -1.47723
O          4.02171         0.28303        -3.01708
H          3.40122         0.00464        -3.73268
O          3.14080        -8.92970        -0.85320
O          4.56994         6.64353         2.55863
H          3.64702         6.34270         2.70561
O         -7.73951         1.76649         0.74500
O          2.00954        -1.06847        -3.40118
O          9.48859        -0.69434        -2.01088
H          9.00216         0.05194        -2.42808
O          2.28600         3.46846        -1.85504
O          0.87156        -4.35103         1.93925
H          0.32607        -4.72019         2.66872
O         -0.78628        -2.03154         0.54220
H         -1.44124        -2.11670         1.27921
O         -1.46800         0.03158        -3.16086
O          5.50561        -8.20582        -1.92473
O         -0.14077        -2.08131        -3.58837
H         -0.31620        -1.29486        -4.14855
O         -1.63711        -5.99586         3.08877
H         -2.33235        -5.38526         3.42014
O         -5.16160         2.04641        -2.65612
H         -4.89197         1.42212        -3.36134
O         -3.02422        -2.92456         1.71059
H         -3.78935        -2.81931         2.33519
O         -2.92718        -8.42830         3.66370
H         -2.26213        -7.71150         3.79440
O         -7.65008         2.13644        -2.51517
H         -8.58608         2.29692        -2.77732
O         -8.82669        -0.81709         0.76073
O          3.33524        -0.48485         0.44231
H          3.03260         0.11869         1.16179
O         -3.26491         4.52852         1.74685
H         -2.65627         3.75362         1.78090
O          4.00680        -6.11526         1.37811
H          3.63096        -6.10121         2.28925
O          8.92814        -5.20522        -2.97225
H          8.13524        -4.76648        -3.34470
O         -0.01498        11.15825         0.50548
H          0.45688        11.16720        -0.35783
O         -5.70457        -6.70711         3.76444
H         -5.62986        -5.73014         3.87290
O          9.36605        -2.09016         1.39148
H          9.50263        -1.29986         1.97569
O         -6.84093         7.71201         1.98156
H         -6.36528         6.96140         2.41824
O         -8.93070         5.20005        -2.06518
H         -8.74663         6.14523        -2.24532
O         -3.59630        -4.95117        -1.25431
H         -3.34187        -4.73581        -2.17946
O          2.56937         5.86554        -1.54326
H          3.18867         6.65366        -1.59764
O          7.08221         1.49466         2.31858
H          6.60703         2.10970         2.92877
H         12.13451        -1.47664        -0.06024
H         12.04823         0.89168         0.64660
H         10.68101         2.98771         1.18730
H          9.42107         5.00470         1.43724
H          8.31077         7.08921         1.39528
H          6.93966         9.23159         2.17839
H          4.80160        10.38349         2.44823
H          2.32858        10.56778         1.87005
H         -0.23475         9.75755         2.00919
H         -2.52118        10.85814         0.57673
H         -5.08291        10.98531         0.31788
H         -7.19522         9.79695         0.50070
H         -8.42103         7.52197        -0.34057
H         -9.68011         5.46512        -0.12810
H        -10.82862         3.32710        -1.32066
H        -12.08780         1.17079        -0.04192
H        -12.03479        -1.20723         0.52154
H        -10.70051        -3.46659         0.72485
H         -9.06241        -5.82345        -0.50433
H         -7.92353        -6.62862         2.51088
H         -6.71384        -8.97689         2.04604
H         -4.61318       -10.24623         1.98113
H         -2.17019       -10.37357         1.77239
H         -0.06881       -10.54875         0.49031
H          3.18714        -9.99593         2.42917
H          5.19580       -10.77303         1.11007
H          7.25722        -9.74878         0.33174
H          8.51307        -7.81205        -0.87325
H          9.73578        -5.71859        -1.14548
H         10.90316        -3.74582        -0.46824
