         651
 CSIRO Nanostructure Databank - Neutral Graphene Oxide Data Set
C          5.82083        31.56590        -0.55967
C          6.03067        32.90424        -0.73423
C          8.44894        27.42768         0.14684
C          8.42633        28.70387        -0.37366
C          7.19277        29.45414        -0.18723
C          8.70160        31.55512        -1.44386
C          6.82895        30.57241        -0.89162
C          8.56311        32.98951        -1.19845
C          7.27729        33.62367        -1.00641
C          8.43766        35.80739        -0.87877
C          7.25052        35.01387        -0.88531
C          8.40760        37.20988        -0.71693
C         10.87792        23.24914         1.23773
C         10.89622        24.60956         0.98576
C          9.65532        25.32873         0.74460
C         10.91448        27.21261        -0.16065
C          9.62497        26.60728         0.23893
C         10.97290        28.56471        -0.81915
C          9.63847        29.28128        -1.17105
C         10.93752        31.56610        -0.49254
C          9.75161        30.79582        -1.04066
C         11.02885        32.90620        -1.27191
C          9.74282        33.71613        -1.10305
C         10.89633        35.89580        -0.85793
C          9.71011        35.13898        -0.95480
C         10.86217        37.30040        -0.67136
C          9.59219        37.96808        -0.59840
C         10.74657        40.08385        -0.10485
C          9.58117        39.38068        -0.35834
C         10.69615        41.55164         0.27614
C         13.23130        18.90314         1.49671
C         13.20469        20.29171         1.71320
C         12.05285        21.09087         1.55107
C         13.29837        23.23710         1.63231
C         12.08254        22.51368         1.50299
C         13.36687        24.66603         1.49553
C         12.14274        25.36646         1.05927
C         13.09113        27.66729         0.79373
C         12.08266        26.68646         0.59044
C         13.37594        28.75024        -0.00001
C         12.31510        29.35429        -0.90335
C         13.42202        31.51842        -0.25882
C         12.25533        30.83679        -0.54403
C         13.44720        32.98777        -0.27503
C         12.28218        33.69331        -0.90319
C         13.33832        35.94819        -0.24358
C         12.19265        35.18249        -0.81541
C         13.38965        37.38155        -0.72720
C         12.06416        38.06479        -0.47513
C         13.23237        40.13357         0.38957
C         12.00972        39.41081        -0.14494
C         13.23173        41.61306         0.09371
C         11.99516        42.30952         0.04887
C         13.16431        44.48387        -0.18285
C         11.96528        43.69666        -0.06498
C         13.13080        45.84796        -0.40754
C         15.70070        14.83397         0.38761
C         15.64106        16.00214         1.12809
C         14.44719        16.77871         1.20730
C         15.70371        18.83083         1.76174
C         14.44003        18.14608         1.53315
C         15.73802        20.19460         1.94180
C         14.47549        20.96383         2.04066
C         15.84079        23.06530         1.52912
C         14.52050        22.47178         1.96160
C         15.91369        24.52687         1.95505
C         14.64207        25.28411         1.65119
C         16.00588        27.28076         1.01825
C         14.87424        26.68327         1.56127
C         15.96181        28.63038         0.29383
C         14.64458        29.43533         0.22010
C         15.87819        31.55144         0.44809
C         14.67383        30.79561         0.00945
C         15.79989        33.04964         0.54216
C         14.55478        33.70887         0.09376
C         15.91699        35.85170        -0.21668
C         14.57405        35.20405         0.07727
C         15.88770        37.39319        -0.28328
C         14.59614        38.12085        -0.20322
C         15.76965        40.23069         0.32197
C         14.55231        39.45898         0.06446
C         15.68459        41.65853         0.33663
C         14.45958        42.31788         0.08242
C         15.62576        44.46223        -0.16696
C         14.44645        43.77022        -0.09895
C         15.60498        45.93810        -0.15741
C         14.39007        46.60848        -0.76341
C         15.58813        48.81402        -0.51888
C         14.40215        48.09750        -0.51629
C         15.62110        50.25367        -0.46267
C         18.12106        11.20684        -1.92345
C         18.12578        12.33951        -1.04785
C         16.94214        13.05142        -0.76968
C         18.17014        14.61716         0.65290
C         16.94262        14.15614         0.10755
C         18.17844        15.71215         1.69792
C         16.88700        16.53497         1.73394
C         18.26809        18.69386         1.86824
C         16.93683        18.01627         1.94636
C         18.28031        20.17087         2.02034
C         16.99017        20.91459         2.09842
C         18.35806        22.94528         1.91704
C         17.03663        22.27492         2.00239
C         18.39671        24.39004         1.57402
C         17.16954        25.18809         1.40812
C         18.54473        27.17889         0.74757
C         17.22523        26.50320         0.99598
C         18.51434        28.71744         0.64756
C         17.16563        29.44056         0.85590
C         18.33259        31.65266         1.04744
C         17.24159        30.88752         0.30428
C         18.21260        33.10375         1.19253
C         17.03639        33.80945         0.67195
C         18.30518        35.97634         0.49908
C         16.96446        35.31501         0.79602
C         18.34217        37.45034         0.50585
C         17.12193        38.17112         0.12104
C         18.20859        40.31822         0.99341
C         16.99779        39.58736         0.45746
C         18.23719        41.75058         0.53309
C         16.92131        42.49057         0.63203
C         18.18148        44.54941        -0.08713
C         16.93188        43.72160        -0.26804
C         18.18079        45.95544        -0.16278
C         16.89085        46.68958        -0.11605
C         18.05984        48.78473        -0.64894
C         16.87727        48.11605        -0.49943
C         18.05441        50.22435        -0.78117
C         16.81945        50.96556        -0.55183
C         18.13008        53.06796        -0.57013
C         16.89933        52.38933        -0.50943
C         18.24268        54.46165        -0.45937
C         20.46016         7.69096        -4.46282
C         20.45045         8.79233        -3.60274
C         19.26425         9.41827        -3.16547
C         20.55371        10.88596        -1.63485
C         19.29016        10.51594        -2.26841
C         20.52325        11.89018        -0.54864
C         19.33672        12.74894        -0.41620
C         20.65554        14.43798         0.83833
C         19.37044        13.91128         0.39311
C         20.69927        15.76791         1.52489
C         19.46196        16.54667         1.67400
C         20.78788        18.64430         1.94858
C         19.53024        17.89597         1.95886
C         20.82067        20.05951         2.42271
C         19.53510        20.81800         2.52676
C         20.84374        22.98190         2.41778
C         19.51030        22.32878         2.70978
C         20.80682        24.45879         2.38498
C         19.64361        25.14015         1.76742
C         21.07027        26.94279         1.14366
C         19.74016        26.39184         1.21556
C         20.97249        29.12255         0.92009
C         19.68219        29.59921         0.97653
C         20.76580        31.75410         1.58785
C         19.54353        31.00750         1.29425
C         20.79015        33.15123         1.51100
C         19.53015        33.88512         1.35268
C         20.89907        35.98877         0.69089
C         19.57389        35.23789         0.71685
C         20.77226        37.47708         0.92436
C         19.52313        38.15509         0.76415
C         20.70840        40.31345         0.65776
C         19.51257        39.59904         0.76258
C         20.70192        41.74349         0.45842
C         19.41577        42.42449         0.33169
C         20.61721        44.56685        -0.10037
C         19.41212        43.86103         0.03050
C         20.62733        45.96997        -0.34627
C         19.38712        46.66404        -0.28754
C         20.58644        48.76035        -0.96190
C         19.39176        48.16830        -0.24871
C         20.35723        50.09013        -1.67070
C         19.23726        50.86285        -1.04178
C         20.70461        52.94237        -0.96068
C         19.37931        52.28111        -0.72802
C         20.72207        54.41767        -0.83322
C         19.49645        55.13263        -0.50434
C         20.78525        57.22630        -0.21582
C         19.54658        56.52507        -0.34593
C         20.81634        58.58471        -0.03304
C         22.81616         5.24278        -6.07657
C         21.63498         5.88947        -5.70773
C         22.92967         7.49070        -4.40712
C         21.66886         7.03433        -4.86861
C         23.01490         8.68993        -3.56828
C         21.73799         9.38929        -3.17113
C         23.01172        10.55304        -1.28066
C         21.73579        10.30832        -2.01477
C         23.13180        11.84355        -0.54219
C         21.86131        12.41977        -0.02015
C         23.13281        14.46048         0.70466
C         21.82682        13.79036         0.51568
C         23.08089        15.95305         0.66178
C         21.99946        16.57977         1.46302
C         23.18319        18.81109         1.23614
C         21.97183        18.04702         1.55618
C         23.27131        20.20935         1.65142
C         22.17636        20.78575         2.54304
C         23.29219        23.02686         2.24335
C         22.07844        22.31328         2.36512
C         23.40365        24.46896         2.70290
C         22.08248        25.22274         2.55314
C         23.29894        27.42152         2.19220
C         22.13162        26.54645         1.90268
C         23.27581        28.91998         2.00969
C         22.08733        29.72151         1.56787
C         23.27086        31.77842         2.25782
C         22.00703        31.07237         1.82648
C         23.24190        33.26993         1.94373
C         22.02648        33.88429         1.63892
C         23.25524        36.15172         1.61430
C         21.95364        35.35265         1.57182
C         23.20442        37.50140         1.05109
C         21.97751        38.19860         0.97093
C         23.17552        40.35936         0.74772
C         21.98038        39.64345         0.78164
C         23.17509        41.74976         0.39460
C         21.90758        42.43068         0.33866
C         23.16425        44.57461        -0.30045
C         21.90290        43.88929         0.13607
C         23.01165        45.80769        -1.17636
C         21.83815        46.65560        -0.70715
C         22.88549        48.58092        -1.90325
C         21.76690        48.03091        -1.07639
C         22.65323        49.94526        -2.50818
C         21.65035        50.86242        -1.90025
C         23.10767        52.98976        -1.69043
C         21.85274        52.19800        -1.58965
C         23.09565        54.37300        -1.38990
C         21.93695        55.06987        -0.88727
C         23.30104        57.17106        -0.36501
C         22.04045        56.36914        -0.09406
C         23.31954        58.65928        -0.19234
C         22.06686        59.36903         0.31971
C         22.93564        61.40104        -0.88891
C         21.97845        60.80139        -0.15410
C         24.05598         5.70249        -5.63618
C         25.38369         7.38750        -4.37608
C         24.13665         6.84016        -4.78746
C         25.46559         8.46645        -3.45595
C         24.27726         8.99561        -2.88919
C         25.66648        10.36906        -1.16529
C         24.30451         9.85701        -1.70160
C         25.62167        11.86020        -0.77509
C         24.34857        12.45675        -0.36479
C         25.62463        14.65176         0.11711
C         24.40168        13.78607         0.30874
C         25.46878        16.08846        -0.38754
C         24.22517        16.78281         0.18264
C         25.46636        18.96278         0.23614
C         24.27180        18.19587         0.62769
C         25.52912        20.42604         0.65069
C         24.41515        20.94663         1.46182
C         25.74549        23.12314         1.58121
C         24.60467        22.28309         2.15943
C         25.75556        24.55731         1.74485
C         24.59342        25.22878         2.12557
C         25.86590        27.49060         1.87528
C         24.60987        26.69514         2.27686
C         25.72777        28.93856         1.56991
C         24.56222        29.61268         1.76075
C         25.76772        31.78320         1.82541
C         24.45529        31.10657         1.49405
C         25.76912        33.28763         1.98551
C         24.47484        34.01347         1.88825
C         25.73148        36.07408         1.27344
C         24.50476        35.38165         1.62557
C         25.68908        37.41037         0.91843
C         24.43728        38.17626         0.59158
C         25.68235        40.34585         0.56870
C         24.47431        39.67554         1.12329
C         25.63066        41.64328         0.00653
C         24.37685        42.39555        -0.00337
C         25.54153        44.41454        -0.89704
C         24.39588        43.76489        -0.43700
C         25.52544        45.80898        -1.33306
C         24.33694        46.52359        -1.42472
C         25.59468        48.72670        -2.01000
C         24.25832        47.92059        -1.93911
C         25.64621        50.19375        -1.75354
C         24.61022        51.01813        -2.17162
C         25.57887        52.98057        -1.21317
C         24.41843        52.35648        -1.74026
C         25.65719        54.43711        -1.29391
C         24.33566        55.15852        -1.56582
C         25.69537        57.25540        -1.01117
C         24.35836        56.63757        -1.30998
C         25.25687        58.47499        -1.77875
C         24.29811        59.38005        -1.05636
C         24.08954        60.67623        -1.39259
C         26.71315         9.06442        -3.11458
C         27.95126        10.87605        -2.04688
C         26.79801        10.14717        -2.21699
C         28.12870        11.77699        -0.84438
C         26.81215        12.51312        -0.60814
C         28.01728        14.76165        -0.73881
C         26.88375        13.95273        -0.25749
C         27.98314        16.17283        -0.59820
C         26.75903        16.87421        -0.25815
C         27.93253        19.03802        -0.16654
C         26.74254        18.25801        -0.05168
C         27.99757        20.41796         0.20088
C         26.84756        21.09389         0.68868
C         28.12154        23.20568         0.88007
C         26.88532        22.47189         1.06403
C         28.15113        24.59550         1.01050
C         26.94804        25.32356         1.35752
C         28.12770        27.41213         0.63090
C         26.97843        26.71279         1.33243
C         28.19788        28.92976         0.84257
C         26.87642        29.68794         0.92917
C         28.20981        31.75273         1.58415
C         27.01459        31.08873         1.48168
C         28.22277        33.20775         1.52913
C         27.02454        33.96337         1.62404
C         28.21214        35.95919         0.91395
C         26.99806        35.33273         1.27003
C         28.20796        37.37507         0.50942
C         26.90904        38.12545         0.51325
C         28.17058        40.21244         0.08052
C         26.98615        39.62191         0.78609
C         28.13856        41.69619        -0.08707
C         26.80264        42.26566        -0.45599
C         28.13211        44.34330        -1.18385
C         26.78905        43.62324        -1.01623
C         28.10467        45.81245        -1.12597
C         26.84730        46.46777        -1.60216
C         28.11509        48.72659        -1.34722
C         26.88623        47.96864        -1.79703
C         27.96923        50.11465        -0.86253
C         26.76462        50.81504        -1.08987
C         27.89577        52.92389        -0.38373
C         26.73064        52.23522        -0.88284
C         27.88352        54.37003        -0.27821
C         26.83520        55.13091        -0.72985
C         26.85657        56.58779        -0.81505
C         29.29254        12.68613        -1.09076
C         30.39973        14.86173        -1.34092
C         29.22963        14.08548        -1.10044
C         30.39268        16.26050        -1.18433
C         29.16332        16.91871        -0.84881
C         30.45649        19.12345        -0.74185
C         29.11574        18.37749        -0.74476
C         30.49960        20.44674        -0.10064
C         29.27625        21.11422         0.21633
C         30.58615        23.15702         0.66063
C         29.33021        22.48251         0.58104
C         30.63741        24.56055         0.89183
C         29.40831        25.30922         0.93572
C         30.67873        27.41139         1.05150
C         29.43439        26.70413         0.92967
C         30.71189        28.78711         1.30627
C         29.48984        29.61289         1.17879
C         30.78925        31.83556         1.76371
C         29.47675        30.96127         1.89811
C         30.61986        32.99415         0.72947
C         29.42357        33.84688         1.13407
C         30.71710        35.93908         0.77483
C         29.42087        35.22640         0.88854
C         30.71203        37.44541         0.63136
C         29.44377        38.14696         0.46723
C         30.58048        40.16123        -0.45062
C         29.39056        39.51459         0.08179
C         30.38199        41.35617        -1.11489
C         29.28754        42.22591        -0.90145
C         30.65576        44.34595        -0.83655
C         29.42331        43.61749        -1.02887
C         30.45553        45.73403        -0.34908
C         29.24986        46.48460        -0.81412
C         30.40867        48.66396        -0.13282
C         29.33868        47.95937        -0.89220
C         30.27675        50.06555         0.04405
C         29.09839        50.77885        -0.28869
C         29.02579        52.18601        -0.04922
C         31.62431        16.98627        -1.21530
C         32.92764        18.99740        -0.65955
C         31.70568        18.34086        -0.86511
C         32.99260        20.33926        -0.17123
C         31.74616        21.04859         0.12094
C         33.05208        23.07204         0.67170
C         31.80789        22.42327         0.51727
C         33.11480        24.48040         0.85953
C         31.88175        25.23448         0.96041
C         33.15661        27.33771         1.05331
C         31.91656        26.65582         1.06707
C         33.21053        28.74182         1.02881
C         31.99862        29.47344         1.42217
C         33.21066        31.62359         0.77720
C         32.05783        31.01027         1.47451
C         33.11236        33.01057         0.42575
C         31.93486        33.75479         0.61491
C         33.15700        35.88454         0.28814
C         31.95680        35.17572         0.48375
C         33.14108        37.31314        -0.21685
C         31.97219        38.16296         0.24788
C         33.23160        40.22243        -0.76103
C         31.93217        39.57011        -0.27508
C         33.32030        41.70992        -0.69463
C         32.25314        42.46260        -1.13928
C         33.09630        44.49433        -0.13500
C         31.95478        43.79054        -0.71281
C         32.96605        45.84674         0.17658
C         31.66004        46.51077         0.16463
C         31.55216        47.97779         0.24983
C         34.21234        20.94476         0.07364
C         35.55589        23.04022         0.48803
C         34.31179        22.25585         0.79319
C         35.58716        24.41522         0.63783
C         34.36375        25.13444         0.88661
C         35.63880        27.30997         0.72217
C         34.43788        26.58348         1.27232
C         35.62122        28.66823         0.51131
C         34.41445        29.45200         0.73873
C         35.54052        31.45322        -0.28354
C         34.37982        30.86068         0.53050
C         35.59718        32.98377        -0.26841
C         34.32448        33.73701        -0.00689
C         35.63449        35.85137         0.12011
C         34.39260        35.19498         0.20207
C         35.68725        37.32361         0.25170
C         34.41378        38.07962         0.07489
C         35.73905        40.24053        -0.09525
C         34.49293        39.48951        -0.43278
C         35.67319        41.62812         0.06987
C         34.46459        42.39153        -0.14470
C         34.33958        43.77822         0.04930
C         36.83146        25.16157         0.57264
C         38.11807        27.27800         0.62370
C         36.87432        26.54206         0.60170
C         38.13107        28.64551         0.45921
C         36.87587        29.30459        -0.06614
C         38.02935        31.52265         0.21934
C         36.86431        30.80890         0.05356
C         38.05032        32.98277         0.18046
C         36.86448        33.70481        -0.01862
C         38.10630        35.85442         0.14596
C         36.85825        35.13134         0.05447
C         38.13649        37.27951         0.11264
C         36.96439        38.05813         0.08915
C         36.93452        39.47205         0.06028
C         39.31120        29.43724         0.59641
C         40.49657        31.58839         0.60910
C         39.28731        30.81764         0.46917
C         40.50127        32.95062         0.53231
C         39.28298        33.69850         0.33184
C         39.29860        35.09874         0.26619
O         27.41073        43.79335        -2.34485
O         32.34504        30.22771         2.65529
O         11.10985        27.33432        -1.62885
O         18.38444        19.57170         0.67632
O         30.33286        32.44057        -0.51148
O         23.45245         9.33711        -0.61392
O         27.09314        47.06343        -2.91345
O         13.72678        35.77818         1.14636
O         34.91256        37.86288         1.41023
O         30.88483        36.81320         1.95886
O         16.76432        37.89772        -1.33528
O         29.30236        30.67603         3.26336
O         18.96963        35.27944        -0.63048
O         12.64975        34.53234        -2.05915
O         21.62722        15.85439         2.65620
O         25.15417        20.03534        -0.72109
O         13.85247        27.53946         1.95911
O         26.08177         9.66700        -0.05510
O         34.81128        33.49028        -1.40093
O         14.47443        21.81261         3.25281
O         23.97656        13.83428         1.71441
O         22.52903         9.93360        -4.29025
O         25.54528        27.18036         3.27453
O         23.07241        28.32039         3.33428
O         31.36020        41.81660        -1.99887
O         21.25642        27.95732         0.21336
O         34.01070        39.59376        -1.83733
O         29.00661        29.56191        -0.22058
O         20.35558        52.42377         0.39060
O         21.19631        25.09420         3.70769
O         26.59278        14.38491         1.15447
O         29.24339        48.51562        -2.25414
O         27.42568        37.67105        -0.76252
O          7.58372        30.93135        -2.01695
O         22.26987        48.78788        -3.26871
O         16.09186        46.46856         1.11787
O         24.32796        57.54034        -2.52340
O         32.20500        39.25831         1.16688
O         18.63256        33.72920         2.49628
O         22.74130        44.68178         1.08526
O         29.63581        19.07689        -1.94232
O         15.63930        32.11464         1.77685
O         30.67031        45.84737         1.10019
O         22.34672        36.02111         2.78316
O         25.85136        32.40274         3.15770
O         23.06161        16.50125        -0.69945
O         18.64034        23.31523         0.51785
O         20.07219        20.14802         3.71142
O         25.22312        54.83098        -2.65570
O         23.91969        57.77002         0.82706
O         23.73393        50.56001        -3.14448
O         24.92848        48.23217        -3.19264
O         16.74579        17.10690         3.08440
O         18.66657        27.88240        -0.54151
O         21.07096        11.44810         0.73292
O         14.56159        46.42474        -2.22100
H         13.81415        46.87607        -2.66741
O         28.37941        42.21598         1.31672
H         29.33158        42.07965         1.51960
O         19.55307        48.52624         1.17135
H         18.82843        48.09256         1.67152
O         19.81945        49.72917        -2.98836
H         20.51749        49.20563        -3.45559
O         27.27239        39.73749         2.23874
H         27.57544        40.66980         2.37493
O         25.25820        15.91554        -1.81943
H         24.81338        16.71832        -2.16622
O          9.35557        28.99285        -2.55282
H          9.64621        28.06643        -2.71447
O         16.08076        24.51604         3.40134
H         16.04408        25.43872         3.73027
O         23.69316        24.37583         4.13654
H         22.83212        24.52289         4.59971
O         24.18473        31.31260         0.08842
H         24.90250        30.84545        -0.41517
O         22.60776        45.28831        -2.48635
H         22.66847        46.02115        -3.13743
O         30.98748        32.45497         3.02148
H         30.40998        31.91993         3.64848
O         25.04350        21.99531         3.52420
H         24.75069        22.75618         4.08414
O         22.12604        59.42893         1.77190
H         22.77099        58.74248         2.05954
O         18.01587        40.37160         2.46850
H         18.87626        40.62490         2.86814
O         16.80174        42.92258         2.01097
H         16.93299        42.12142         2.57112
O         15.85829        23.00179         0.08182
H         16.79400        23.13729        -0.20734
O         34.42356        21.91289         2.24345
H         34.49509        22.76059         2.73406
O         22.10266        55.92138         1.28782
H         22.63056        56.58697         1.78446
O         27.89701        27.21879        -0.79933
H         28.47100        27.87105        -1.26219
O         16.14804        28.32086        -1.10251
H         17.06335        27.96966        -1.23734
O         16.99962        43.19786        -1.63152
H         16.93695        43.95211        -2.25478
O         10.66575        31.85177         0.91197
H         11.50104        32.13020         1.34435
O         12.72615        29.31899        -2.28235
H         12.48008        28.43585        -2.63710
O         21.45196        35.83001        -0.65096
H         20.68215        35.82583        -1.26979
O         36.89063        28.99308        -1.49666
H         36.22586        29.58821        -1.92456
O          9.60439        42.20559        -0.37604
H          9.73210        42.13064        -1.34361
O         26.44911        29.88511        -0.46720
H         27.26135        30.15259        -0.96085
O         18.24296        14.99519         2.96174
H         17.92468        15.61563         3.65732
O         32.98353        37.14994        -1.65196
H         33.31817        37.97235        -2.09618
O         11.13050        32.54398        -2.66146
H         11.60916        33.27510        -3.11571
O         13.56765        37.31106        -2.16734
H         13.73175        38.21488        -2.50718
O         16.54215        35.66039         2.12907
H         17.03922        35.08456         2.75559
O         34.61109        26.56576         2.74574
H         34.51621        27.49082         3.06157
O         13.11505        40.03929         1.85225
H         13.17751        39.09145         2.09868
O         16.28367        35.35490        -1.51100
H         16.84339        36.03922        -1.94644
O         22.63434        20.57180         3.89837
H         21.83826        20.49456         4.47108
O         35.22781        31.05372        -1.65577
H         34.76466        31.82897        -2.06566
O         16.99684        29.53064         2.28468
H         16.46548        30.33156         2.49679
O         23.40322        31.59438         3.67232
H         24.29559        31.92586         3.94158
O         17.54864        30.86854        -1.09965
H         18.33425        30.30205        -1.25063
O         19.18202        22.59891         4.09394
H         19.65630        21.93477         4.64272
O         24.38421        38.35148        -0.85230
H         24.38870        37.46684        -1.27545
O         24.54793        39.60438         2.56255
H         25.50597        39.58671         2.81359
O         28.40093        10.96120         0.31571
H         27.60089        10.35667         0.41630
H          4.85904        31.23572        -0.13612
H          5.18698        33.56749        -0.47873
H          7.51970        27.01970         0.57637
H          6.54571        29.13059         0.64370
H          6.28421        35.52118        -0.73949
H          7.43518        37.72007        -0.64413
H          9.92391        22.70275         1.19437
H          8.71179        24.81968         0.99414
H          8.61732        39.91070        -0.32712
H         10.47933        41.60456         1.37966
H         12.29334        18.38016         1.25497
H         11.09119        20.59063         1.35822
H         10.98959        44.20592        -0.07894
H         12.15798        46.35498        -0.51210
H         14.78604        14.45309        -0.09070
H         13.50414        16.30844         0.88895
H         13.44310        48.63860        -0.48835
H         14.67076        50.79917        -0.35898
H         17.16666        10.89874        -2.37524
H         15.99414        12.71981        -1.21760
H         15.97431        52.97441        -0.39263
H         17.33552        55.06125        -0.29031
H         19.50120         7.28471        -4.81770
H         18.29555         9.06225        -3.54601
H         18.60682        57.09171        -0.26122
H         19.86137        59.13400        -0.01175
H         22.76711         4.36068        -6.73028
H         20.66628         5.51424        -6.06687
H         22.83263        62.45912        -1.16929
H         21.10887        61.37664         0.19619
H         24.97919         5.19365        -5.94682
H         26.31519         6.94753        -4.76077
H         25.98244        58.99481        -2.44347
H         24.77359        61.18709        -2.08579
H         27.63979         8.62853        -3.51844
H         28.72106        10.86977        -2.83559
H         28.77903        54.86429         0.12755
H         27.82271        57.11237        -0.76780
H         30.27312        12.20638        -1.23290
H         31.34332        14.34962        -1.57786
H         31.10653        50.61525         0.51301
H         29.91138        52.69880         0.35414
H         32.55415        16.42207        -1.37936
H         33.86633        18.44714        -0.82299
H         33.84977        46.42985         0.47628
H         32.39365        48.53614         0.68814
H         35.14166        20.39725        -0.14535
H         36.49402        22.48742         0.32800
H         36.58033        42.16820         0.38181
H         35.20443        44.34773         0.42110
H         37.76801        24.59188         0.47782
H         39.05049        26.73385         0.83995
H         39.11690        37.77983         0.09914
H         37.88926        40.01422         0.14702
H         40.26061        28.93531         0.84020
H         41.43775        31.04448         0.77811
H         41.44365        33.50758         0.63758
H         40.26026        35.62739         0.34679
