         429
 CSIRO Nanostructure Databank - Neutral Graphene Oxide Data Set
C          2.00805         2.28574        -3.02506
C          2.13507         3.60042        -3.44204
C          3.03017         1.69235        -2.26657
C          3.31968         4.33452        -3.18422
C          2.25518         6.50507        -3.80474
C          2.22769         7.87834        -3.73804
C          3.39534         5.76211        -3.39300
C          3.34937         8.61173        -3.25109
C          2.04850        10.75694        -3.22232
C          1.99774        12.10387        -3.20746
C          3.29467        10.02936        -3.07141
C          3.24416        12.94502        -3.22606
C          1.86644        14.89214        -2.24142
C          1.79250        16.22926        -1.78403
C          3.07508        14.30798        -2.56073
C          2.94787        16.99986        -1.55537
C          2.85221        18.34638        -1.04629
C          4.22088         2.37416        -2.03169
C          4.41976         3.67868        -2.56199
C          5.21564         1.79925        -1.05808
C          5.72605         4.31573        -2.51494
C          4.58619         6.45832        -3.04353
C          4.55175         7.89250        -2.96762
C          5.80087         5.73134        -2.76639
C          5.68452         8.61800        -2.49216
C          4.44773        10.74612        -2.65473
C          4.45535        12.20304        -2.65581
C          5.61454        10.01815        -2.30896
C          5.59167        12.90926        -2.31707
C          4.29567        15.11373        -2.41758
C          4.23356        16.44582        -1.80120
C          5.62502        14.38630        -2.39986
C          5.41812        17.11492        -1.36990
C          3.97476        19.04258        -0.71098
C          5.28022        18.43988        -0.79023
C          6.62195         2.26671        -1.33550
C          6.82661         3.47808        -2.11769
C          7.67435         1.57391        -0.81305
C          8.18604         3.84166        -2.33749
C          6.98741         6.53067        -2.53055
C          6.91052         7.91701        -2.23946
C          8.29285         5.97329        -2.54557
C          8.08859         8.60800        -1.79909
C          6.75569        10.70532        -1.69060
C          6.75621        12.23628        -1.69838
C          8.04319        10.00938        -1.56112
C          8.06187        12.90388        -1.55135
C          6.85246        15.13397        -1.95483
C          6.69505        16.50296        -1.40752
C          8.13307        14.37960        -1.72307
C          7.79746        17.09753        -0.68651
C          6.39086        19.10498        -0.28629
C          7.65304        18.46313        -0.17627
C          9.09270         1.91508        -1.17909
C          9.24745         3.36479        -1.57215
C         10.20732         1.35141        -0.35294
C         10.48183         4.12635        -1.33826
C          9.39343         6.50930        -1.87125
C          9.29359         7.89188        -1.51612
C         10.57603         5.69922        -1.48654
C         10.44045         8.58878        -1.03148
C          9.19311        10.72197        -1.15916
C          9.16510        12.17902        -1.11816
C         10.40261        10.00229        -0.88907
C         10.35222        12.88348        -0.64632
C          9.34059        15.14467        -1.16919
C          8.96895        16.40127        -0.42251
C         10.33843        14.27111        -0.45881
C          9.94972        16.95908         0.58106
C          8.75723        19.13899         0.35469
C          9.97825        18.46850         0.62269
C         11.37081         2.04886        -0.14256
C         11.32506         3.56795        -0.19212
C         12.57716         1.36858         0.21857
C         12.67241         4.22251        -0.05210
C         11.61914         6.42782        -0.71233
C         11.59968         7.81296        -0.65835
C         12.72173         5.68722        -0.08045
C         12.87906         8.52284        -0.25320
C         11.58027        10.72497        -0.44460
C         11.52363        12.13054        -0.32793
C         12.73285        10.00348        -0.00307
C         12.74423        12.88165        -0.02586
C         11.42951        14.96019         0.16997
C         11.32080        16.33085         0.53747
C         12.64872        14.28252         0.38724
C         12.42656        17.01164         1.07000
C         11.10942        19.12411         1.08773
C         12.33730        18.43676         1.35798
C         13.78038         2.04941         0.41977
C         13.76000         3.50268         0.36121
C         15.00461         1.36816         0.68030
C         14.99411         4.25389         0.68895
C         13.70110         6.34748         0.63066
C         13.49063         7.81053         0.94863
C         14.76347         5.57006         1.39173
C         14.73569         8.49040         1.52379
C         13.82055        10.64717         0.60070
C         13.96587        12.09498         0.45181
C         14.88042         9.94230         1.26303
C         14.97666        12.79597         1.24710
C         13.73678        14.93519         1.01184
C         13.64922        16.31722         1.33844
C         14.89043        14.19489         1.43881
C         14.76641        16.98446         1.94832
C         13.46945        19.10850         1.80974
C         14.69644        18.43422         2.08418
C         16.21923         2.03180         0.92784
C         16.25567         3.51214         0.93168
C         17.41071         1.36068         1.24249
C         17.37972         4.21429         1.58156
C         16.05759         6.30305         1.69622
C         15.93698         7.72934         2.04535
C         17.27710         5.63457         1.83138
C         17.17657         8.50535         2.53828
C         16.04886        10.61103         1.62552
C         16.07925        12.03651         1.69993
C         17.33561         9.85337         1.81591
C         17.12832        12.68606         2.43085
C         15.87152        14.84304         2.24999
C         15.89252        16.26904         2.39980
C         16.82135        13.98005         2.86100
C         17.04868        17.03768         3.09919
C         15.86336        19.14247         2.36898
C         17.09741        18.47843         2.62369
C         18.59189         2.06550         1.60216
C         18.55852         3.50924         1.79812
C         19.79582         1.38456         1.81337
C         19.75207         4.20768         2.20888
C         18.49304         6.33455         2.23633
C         18.48068         7.74453         2.41482
C         19.70355         5.59961         2.38975
C         19.66922         8.49438         2.51405
C         18.47992        10.65103         2.42216
C         18.40564        12.02599         2.69119
C         19.69283         9.92046         2.55817
C         19.64219        12.78219         2.91147
C         18.59769        15.06145         3.34720
C         18.44016        16.40554         2.99120
C         19.68107        14.21211         3.02229
C         19.68660        17.22298         3.04816
C         18.28199        19.17148         2.44225
C         19.61282        18.64327         2.57869
C         20.99297         2.06774         2.15366
C         20.98592         3.48236         2.35935
C         22.21002         1.34288         2.27820
C         22.21387         4.15914         2.64616
C         20.91172         6.32329         2.94199
C         20.94601         7.75734         2.46207
C         22.23637         5.60816         2.77900
C         22.22647         8.52294         2.60810
C         20.93394        10.65325         2.71722
C         20.89181        12.08978         2.80012
C         22.15910         9.97231         2.80271
C         22.15161        12.82011         2.71966
C         20.86502        14.97831         2.51490
C         20.95194        16.38460         3.11698
C         22.15891        14.22241         2.56525
C         22.26081        17.01183         2.92502
C         20.65234        19.41069         2.06248
C         22.05611        19.07805         2.16175
C         23.40316         1.99758         2.54020
C         23.40701         3.40700         2.70311
C         24.68126         1.21114         2.75409
C         24.69276         4.08125         2.96668
C         23.42286         6.31644         2.88736
C         23.48357         7.77759         2.86806
C         24.69473         5.57913         3.07948
C         24.67020         8.47010         2.87075
C         23.41075        10.70679         3.04937
C         23.40693        12.15344         2.76006
C         24.72564         9.94857         3.00238
C         24.62246        12.85870         2.63398
C         23.36363        14.92667         2.38306
C         23.32835        16.38814         2.36387
C         24.60443        14.25001         2.43179
C         24.48246        17.14098         1.82386
C         23.10827        19.28619         1.31173
C         24.40938        18.61375         1.50440
C         25.92138         1.99370         2.37629
C         25.92893         3.39272         2.52093
C         27.06675         1.32177         1.93544
C         27.06195         4.15574         2.09183
C         25.99004         6.29101         2.81912
C         25.97819         7.78435         2.77646
C         27.06299         5.56358         2.13327
C         27.08727         8.52044         2.11605
C         25.95280        10.67280         2.58546
C         25.97391        12.18084         2.81412
C         27.05850         9.97364         2.14786
C         27.07364        12.91988         2.04730
C         25.89302        15.04818         2.53053
C         25.78947        16.41722         1.86561
C         27.08006        14.27462         1.97252
C         27.05220        17.21045         1.73211
C         25.55959        19.26157         1.17269
C         26.90643        18.66438         1.33061
C         28.24279         2.03511         1.58120
C         28.22488         3.45562         1.61436
C         29.44080         1.35865         1.20220
C         29.39095         4.19184         1.23351
C         28.03657         6.33371         1.28324
C         28.16249         7.82000         1.59809
C         29.35082         5.60999         1.13430
C         29.27187         8.52533         0.99755
C         28.30562        10.67679         1.73793
C         28.30815        12.17272         1.69468
C         29.33437         9.91230         0.98110
C         29.30827        12.87403         0.85207
C         28.39157        15.01855         1.71396
C         28.25565        16.47372         1.31083
C         29.34131        14.24701         0.81810
C         29.29702        17.13802         0.69759
C         28.04844        19.26062         0.63021
C         29.20034        18.56686         0.41094
C         30.59410         2.05867         0.85845
C         30.57375         3.50482         0.84825
C         31.82501         1.37305         0.55776
C         31.73081         4.24108         0.48277
C         30.48217         6.30679         0.72465
C         30.34128         7.73774         0.35554
C         31.71023         5.63769         0.47424
C         31.51630         8.46527        -0.25343
C         30.39857        10.60834         0.29736
C         30.26824        12.06691         0.08181
C         31.50074         9.93915        -0.23965
C         31.46527        12.80708        -0.51100
C         30.44644        14.97068         0.21118
C         30.46594        16.39800         0.22941
C         31.55756        14.25985        -0.30440
C         31.60627        17.08939        -0.23867
C         30.35733        19.31817        -0.20951
C         31.63370        18.52431        -0.32364
C         32.96414         2.04850         0.16856
C         32.86734         3.51498        -0.18591
C         34.20112         1.38036        -0.07250
C         34.17840         4.24326        -0.13977
C         32.96388         6.49476         0.41615
C         32.81278         7.77030        -0.37113
C         34.31056         5.71207         0.23305
C         33.91895         8.45546        -0.88912
C         32.67345        10.62419        -0.74536
C         32.68810        12.04083        -0.78978
C         33.84014         9.89446        -1.12937
C         33.85320        12.74034        -1.16903
C         32.76159        14.92508        -0.64568
C         32.79214        16.36266        -0.58919
C         33.89719        14.18916        -1.11693
C         33.98644        17.05714        -0.85509
C         32.80417        19.18572        -0.61960
C         34.02623        18.47991        -0.86979
C         35.35890         2.08614        -0.38642
C         35.33289         3.54146        -0.34455
C         36.59240         1.39300        -0.65609
C         36.59762         4.29910        -0.51311
C         35.30125         6.40290        -0.72054
C         35.11799         7.73235        -1.18533
C         36.46732         5.69539        -0.99170
C         36.11651         8.35844        -2.13995
C         34.98114        10.59548        -1.61598
C         34.97445        12.01093        -1.62995
C         36.17329         9.87083        -2.04922
C         36.04356        12.75479        -2.32406
C         35.10176        14.86189        -1.43982
C         35.21308        16.28734        -1.08978
C         36.18936        14.20874        -2.06938
C         36.46417        17.04287        -1.51622
C         35.19865        19.17291        -1.25306
C         36.36954        18.50977        -1.66676
C         37.77102         2.04830        -0.93445
C         37.83076         3.52664        -0.87208
C         39.00333         1.36527        -1.24268
C         38.94665         4.21136        -1.55821
C         37.47356         6.19883        -1.99252
C         37.48188         7.69997        -2.12077
C         38.84339         5.56676        -1.90073
C         38.59347         8.35636        -2.55827
C         37.27913        10.52056        -2.53487
C         37.21234        11.96189        -2.85767
C         38.45529         9.75953        -3.11929
C         38.45000        12.69741        -3.28819
C         37.35374        14.91498        -2.47945
C         37.49590        16.30663        -2.26167
C         38.46817        14.22505        -3.17642
C         38.62104        17.04178        -2.73043
C         37.46871        19.18094        -2.21926
C         38.61525        18.47932        -2.66798
C         40.13661         2.04857        -1.58571
C         40.13745         3.48297        -1.78445
C         41.26538         4.17793        -2.27142
C         39.98519         6.25979        -2.36069
C         39.88907         7.68790        -2.64640
C         41.19839         5.54323        -2.50946
C         41.01135         8.44556        -2.91982
C         39.75608        10.54808        -3.12511
C         39.73837        11.98446        -3.30955
C         40.94693         9.85424        -3.08131
C         40.89175        12.73300        -3.51539
C         39.77427        14.90948        -3.26995
C         39.79406        16.36088        -3.19589
C         40.90163        14.14913        -3.52919
C         40.91532        17.11202        -3.57186
C         39.76524        19.19351        -3.10155
C         40.89235        18.51724        -3.53422
O         21.71010         8.05348         1.26242
O         26.43742         7.09189         3.99452
O         15.97722         4.19461        -0.37890
O          7.83886        14.91568        -3.06128
O         36.29403        16.57594        -0.13284
O          6.38652        11.47647        -0.49082
O          5.15698        14.99983        -3.64920
O         24.14818        10.37756         4.28813
O         38.16478        13.53892        -4.44377
O         11.15280         4.75355        -2.45399
O         30.31582        12.41611        -1.34303
O         25.01892        16.39512         0.63253
O         36.08904        12.31361        -3.73507
O         13.86156        12.57393        -0.93093
O         17.49166        14.46485         3.98132
O         37.63570         4.06625         0.49781
O         28.90067        11.47226         2.86138
O          8.45966         4.81541        -3.30501
O         20.32348        16.82220         4.34728
O         34.90956         5.58622         1.50808
O         14.80671         8.07427         2.95507
O         24.74484         4.74044         4.28509
O         30.43026         7.90150        -1.10894
O         27.23292        18.26265         2.72202
O         22.36410        18.34193         3.32649
O         29.98445        19.77907        -1.52715
H         29.83434        18.99353        -2.09234
O          9.29622         1.19874        -2.47776
H         10.13375         1.53350        -2.86639
O         29.04687        15.06830         3.02337
H         29.13504        14.14784         3.35173
O         20.60649        15.27620         1.08725
H         20.74943        14.44921         0.57938
O         32.50441         3.53094        -1.62229
H         31.70189         2.97510        -1.72373
O         10.57109         3.97742         0.99987
H         11.08828         3.70938         1.78900
O         20.69942         6.43037         4.38730
H         20.72773         5.52735         4.76784
O         13.82147         8.37889        -1.34937
H         13.46417         8.85064        -2.13037
O         36.92461         5.69638        -3.27113
H         36.23391         6.34734        -3.56277
O         17.02431         8.75877         3.94827
H         16.05813         8.76411         4.14269
O         17.75513         9.50847         0.45927
H         17.85154        10.33680        -0.05564
O          4.82358         2.20271         0.27381
H          4.80038         3.18146         0.29928
O         14.18427         5.23413         2.69911
H         14.17831         6.06826         3.22282
O         24.63414        -0.03786         2.06254
H         24.58782         0.14299         1.10165
O         26.34361        12.37609         4.21828
H         27.19381        11.90021         4.35840
O         10.11298        15.64775        -2.31180
H          9.46883        15.73435        -3.05807
O          3.50104        13.18922        -4.64225
H          4.22354        13.86715        -4.68463
O          9.40230        16.55461         1.89901
H          9.93634        17.00887         2.58582
O         26.14330        15.26137         3.93782
H         26.23296        14.37090         4.35675
O         12.46488         7.87663         1.97315
H         12.89767         7.68980         2.83592
O         16.70533        17.08220         4.51230
H         16.81740        16.16811         4.86100
O         27.43033         6.33083        -0.07230
H         28.10987         6.67042        -0.69627
O         38.06611         9.54995        -4.52613
H         37.97832        10.43528        -4.94352
O         33.04742         7.11399         1.73519
H         33.86552         6.66979         2.14497
O         35.59021         8.08678        -3.49629
H         36.19523         8.55669        -4.12176
H          1.08516         1.72785        -3.23444
H          1.29649         4.07360        -3.96948
H          2.89061         0.68521        -1.84863
H          1.35644         5.97805        -4.15083
H          1.31656         8.40556        -4.04892
H          1.11116        10.18999        -3.31138
H          1.02915        12.60491        -3.34549
H          0.92730        14.33392        -2.36006
H          0.80720        16.66939        -1.57644
H          1.85591        18.79547        -0.92636
H          5.17478         0.68180        -1.07164
H          3.89775        20.06526        -0.31366
H          7.48698         0.65890        -0.23139
H          6.27591        20.12362         0.11392
H         10.21425         0.25572        -0.23526
H          8.67764        20.21654         0.56523
H         12.56026         0.26888         0.26131
H         11.07572        20.21403         1.24131
H         14.99164         0.26779         0.70616
H         13.42584        20.19784         1.95985
H         17.43898         0.26101         1.21199
H         15.85909        20.24027         2.28359
H         19.83076         0.29409         1.67219
H         18.20377        20.21727         2.10188
H         22.20494         0.24972         2.15828
H         20.37634        20.34030         1.53788
H         24.74683         0.96322         3.85036
H         22.99879        19.95433         0.44400
H         27.05331         0.22404         1.87026
H         25.51314        20.30238         0.81614
H         29.45435         0.25870         1.20741
H         27.97049        20.30283         0.28422
H         31.85687         0.28011         0.68564
H         30.55098        20.24257         0.39387
H         34.24424         0.28612         0.03833
H         32.80323        20.28324        -0.69384
H         36.57423         0.29206        -0.65971
H         35.16433        20.27103        -1.31445
H         39.02024         0.26681        -1.18170
H         37.45381        20.27899        -2.28808
H         41.06695         1.49834        -1.79013
H         42.20333         3.63381        -2.45282
H         42.09972         6.05754        -2.86912
H         42.00404         7.97830        -2.95241
H         41.90162        10.39169        -3.16095
H         41.86051        12.22774        -3.62472
H         41.87247        14.64376        -3.67083
H         41.82520        16.60790        -3.92438
H         39.75431        20.29226        -3.06927
H         41.78110        19.07865        -3.85407
