         280
 CSIRO Nanostructure Databank - Neutral Graphene Oxide Data Set
C         30.34779        32.20779         0.37531
C         30.41934        33.45894         0.22465
C         30.84879        36.79773        -0.43407
C         31.13553        38.00101        -0.29013
C         30.23204        40.26530         1.60333
C         30.44114        41.13777         0.69428
C         32.62380        29.27199         0.17137
C         31.51026        29.84763         0.30645
C         32.63222        31.88869        -0.20843
C         31.38705        31.25699         0.20888
C         32.53291        33.27609        -0.56793
C         31.50266        34.19884        -0.32009
C         32.90402        36.12465         0.58824
C         31.86286        35.68194        -0.52598
C         32.90578        37.50787         1.18760
C         31.92098        38.68021         0.79368
C         32.85397        39.86644         0.55320
C         30.88410        39.06450         1.85190
C         32.66987        41.15419         0.07028
C         31.35625        41.79262        -0.10023
C         32.49815        43.77638        -0.99020
C         31.50143        43.12361        -0.60244
C         35.20024        27.51988        -0.62677
C         35.19393        28.91955         0.03829
C         33.92581        29.74922        -0.08621
C         35.25799        31.82804        -0.02490
C         33.90519        31.16077        -0.23804
C         35.45611        33.28925         0.13066
C         34.48505        34.18376        -0.18942
C         35.48101        35.99624         1.05067
C         34.16745        35.25717         0.82950
C         35.49060        37.38540         1.24342
C         34.22647        38.10466         1.67349
C         35.41220        40.20464         0.69421
C         34.17664        39.51843         1.12990
C         35.27455        41.42225        -0.14226
C         33.89748        41.98834        -0.28690
C         35.10016        44.19582        -0.77025
C         33.82574        43.53107        -0.28373
C         35.25802        45.60806        -0.86953
C         37.67812        27.34618        -0.58254
C         36.35045        26.95994        -0.54059
C         37.72755        28.84301        -0.77381
C         36.38728        29.63435        -0.68786
C         37.82710        31.78185        -0.06935
C         36.52498        31.02137        -0.05625
C         37.84787        33.10173         0.61280
C         36.67810        33.83613         0.70830
C         37.97614        35.95635         1.29555
C         36.67626        35.24733         1.00359
C         37.92653        37.38802         0.82004
C         36.71281        38.10993         0.98597
C         37.83229        40.16184         0.16369
C         36.69445        39.48919         0.65849
C         37.76090        41.59394        -0.16540
C         36.50406        42.24237        -0.25578
C         37.65185        44.41996        -0.89808
C         36.37741        43.60438        -0.63963
C         37.51130        45.89223        -0.44487
C         36.21652        46.40847        -1.02326
C         40.12701        24.55027        -0.34375
C         39.02567        25.13619        -0.37979
C         40.21948        27.23779        -0.22361
C         38.83469        26.59001         0.03007
C         40.30935        28.72273        -0.46819
C         39.05193        29.55375        -0.61625
C         40.37003        31.64647         0.25207
C         39.11270        31.02409        -0.25946
C         40.38004        32.96076         0.58999
C         39.15277        33.69787         1.07687
C         40.28669        35.81125         0.33753
C         39.19201        35.19087         0.81956
C         40.26264        37.24524        -0.12976
C         39.04471        38.03206         0.29175
C         40.24920        40.09340        -0.49403
C         39.02278        39.41477        -0.00749
C         40.22853        41.59517        -0.55473
C         38.96077        42.33063        -0.35362
C         40.11777        44.50213        -0.23057
C         38.94710        43.75918        -0.42428
C         40.07776        45.95298         0.03335
C         38.72699        46.66885        -0.08476
C         40.05644        48.67604        -0.44652
C         38.96833        48.10798        -0.20990
C         42.77274        24.51305        -0.10799
C         41.49388        24.78379        -0.18988
C         42.80814        27.17480         0.00006
C         41.46108        26.58693         0.38656
C         42.86445        28.66928        -0.14631
C         41.56241        29.38427         0.05811
C         42.93700        31.50667         0.77664
C         41.59569        30.81909         0.44903
C         42.88664        32.93289         0.20806
C         41.66487        33.72631         0.73068
C         42.81424        35.87592         0.04012
C         41.53159        35.05503        -0.07927
C         42.80240        37.23829         0.13259
C         41.50892        38.01212         0.32454
C         42.73946        40.16358         0.17378
C         41.59812        39.35877        -0.43428
C         42.73422        41.65486         0.08790
C         41.51861        42.35535        -0.45254
C         42.70362        44.54200         0.30572
C         41.45774        43.83354        -0.26086
C         42.68097        45.95880        -0.26695
C         41.41207        46.75202        -0.02238
C         42.67786        48.68424        -0.68815
C         41.39007        48.22154        -0.36038
C         43.96599        25.05451         0.12136
C         45.30913        27.23856         0.57889
C         44.09389        26.41211         0.23989
C         45.38781        28.60454        -0.32427
C         44.14175        29.42058        -0.01770
C         45.41396        31.52972         0.05783
C         44.16910        30.76508         0.24073
C         45.41209        32.98024         0.05829
C         44.16451        33.74279         0.47756
C         45.36207        35.86941         0.04919
C         44.09458        35.11085        -0.25645
C         45.35450        37.35902        -0.09791
C         44.02272        38.03099         0.14465
C         45.25284        40.15824         0.43469
C         44.02043        39.40692         0.23077
C         45.31113        41.61676         0.00447
C         44.00759        42.40849         0.06948
C         45.25322        44.54921        -0.00946
C         44.01447        43.79294         0.01326
C         45.25009        45.96371        -0.13523
C         44.01485        46.66515        -0.52345
C         43.78592        48.11083        -0.50326
C         47.71512        27.34271         0.25756
C         46.68204        26.65484         0.33011
C         47.89559        28.75229         0.04099
C         46.67282        29.39467        -0.10486
C         47.83098        31.57824        -0.53114
C         46.61189        30.83600        -0.13374
C         47.80002        33.08968        -0.57546
C         46.56004        33.73297        -0.12296
C         47.82649        35.90993         0.10918
C         46.55777        35.18849         0.03173
C         47.78267        37.27676         0.70671
C         46.46149        38.01538         0.70187
C         47.65030        40.17072         1.30503
C         46.40085        39.50030         0.77710
C         47.61931        41.71445         1.23937
C         46.33101        42.44169         0.84048
C         47.75022        44.60034         0.79694
C         46.58034        43.79758         0.13286
C         47.46731        45.91754         0.57903
C         46.41622        46.62328         0.33130
C         50.48188        28.99364         0.29000
C         49.09899        29.58682         0.38814
C         50.37906        31.76524        -0.22153
C         49.16962        30.84065        -0.56293
C         50.39242        33.18563        -0.80157
C         49.07468        33.90487        -0.69478
C         50.28331        36.05851        -0.06947
C         49.03525        35.32852        -0.24568
C         50.25867        37.47009         0.12809
C         49.08085        38.07026         0.89700
C         50.13859        40.33249         0.65394
C         48.84408        39.56898         0.50652
C         50.17726        41.61593         1.13884
C         48.93063        42.42960         1.26935
C         49.92319        43.92052        -0.36493
C         49.09511        43.91796         0.87453
C         51.53869        29.61251         0.09841
C         52.84621        31.87488        -0.22226
C         51.92103        30.81908        -0.65522
C         52.77564        33.10179        -0.24203
C         51.72243        34.05284        -0.71502
C         52.57223        35.85964         0.78114
C         51.53147        35.34536         0.03727
C         53.54155        36.33555         1.43338
C         51.31785        38.32238        -0.29458
C         51.92175        40.68806        -0.85199
C         51.26078        39.73621        -0.08097
C         52.13475        41.74142        -1.49590
C         51.80493        43.00649        -1.95775
C         50.75227        43.65665        -1.22116
O         41.33538        29.76173         1.46540
O         40.43459        27.76304        -1.54464
O         33.64676        33.79156        -1.22522
O         35.85397        31.20391         1.20909
O         41.76265        43.23971        -1.58046
O         42.82848        27.79394        -1.32670
O         37.77177        46.17914         0.91906
O         38.47684        29.31214        -1.94118
O         34.55772        41.36099        -1.42911
O         48.15625        42.28653         2.50427
O         46.91344        37.31460         1.89233
O         34.82064        40.47516         2.04234
O         49.69949        33.55067        -1.99971
O         38.52540        31.82378        -1.35504
O         40.78372        46.39261         1.23711
O         47.58156        32.28358        -1.79235
O         32.28948        36.41512         1.88799
O         43.24088        46.03427        -1.59482
O         42.40938        40.95212         1.36638
O         40.12024        40.76670        -1.79278
O         45.68134        37.59933        -1.50481
H         45.10549        37.00859        -2.04078
O         42.61130        44.62995         1.73653
H         42.90807        43.78178         2.12898
O         45.65812        41.46682        -1.38450
H         45.97265        42.32948        -1.74402
O         52.01911        30.60612        -2.01137
H         51.26172        30.04109        -2.29302
O         34.23052        38.15415         3.11692
H         34.63331        39.02092         3.36159
O         33.89427        34.48293         2.03036
H         33.36830        35.06652         2.62911
O         40.21568        37.14984        -1.58420
H         40.82396        37.83333        -1.97265
O         41.30919        38.28083         1.72209
H         42.08528        38.76652         2.07422
O         41.36398        34.74348        -1.48600
H         40.88929        35.51770        -1.88849
O         52.04728        34.47861        -2.03928
H         52.16957        33.68425        -2.60128
O         51.35468        42.24560         1.36828
H         51.18456        43.15077         1.72494
O         49.34042        30.33840        -1.89921
H         48.88371        30.97176        -2.50287
O         38.10149        36.00083         2.77027
H         37.27896        36.40578         3.12258
O         43.07736        31.56183         2.20737
H         42.66189        30.74751         2.57433
O         52.41688        43.60091        -2.98566
H         52.05096        44.49154        -3.15113
O         42.00214        39.07772        -1.79785
H         41.64738        39.81823        -2.35138
O         47.73564        39.80258         2.68970
H         48.14619        40.55301         3.17893
O         45.20870        27.63774         1.94119
H         45.01469        26.84852         2.48867
O         48.88287        30.03962         1.73833
H         48.77455        29.25031         2.31043
O         44.33029        34.03775         1.87245
H         43.95032        33.29417         2.39515
O         48.43508        39.61479        -0.87780
H         49.14922        39.24115        -1.43609
O         35.50061        28.72238         1.40670
H         34.67128        28.70612         1.92714
O         52.29513        37.90486        -1.11138
H         52.32256        36.92570        -1.18509
O         49.48237        37.97685         2.26799
H         48.65859        37.93397         2.80946
O         45.63262        42.72550         2.06963
H         46.30641        42.89966         2.76490
O         44.10550        34.92765        -1.70024
H         43.18361        34.65295        -1.95519
O         47.11969        43.55593        -1.20345
H         47.14219        44.42011        -1.66820
O         45.41479        28.21681        -1.69747
H         44.52302        27.86791        -1.94401
O         42.74447        32.72304        -1.21171
H         43.61796        32.46674        -1.57833
O         50.46130        32.02593         1.15772
H         50.27395        31.20778         1.67680
O         41.84717        34.07169         2.11084
H         40.99487        33.90642         2.58725
O         38.65117        26.61048         1.46492
H         37.75719        26.25673         1.66587
O         32.51419        35.85388        -1.77527
H         31.91450        35.57102        -2.49526
O         30.74392        38.31328         2.93032
H         30.06454        38.67739         3.53148
O         39.21095        33.51868         2.54103
H         38.72705        34.28724         2.94327
O         35.94172        29.84101        -2.03723
H         36.74319        29.90049        -2.60823
O         37.81561        44.51257        -2.33826
H         37.85401        43.60500        -2.70730
O         49.90893        44.52940         1.90171
H         49.34752        44.65761         2.69609
O         41.36445        26.48443         1.75620
H         40.41814        26.35329         2.01231
O         33.70585        43.92469         1.08517
H         33.68303        44.90378         1.13086
