         404
 CSIRO Nanostructure Databank - Neutral Graphene Oxide Data Set
C          1.18224         3.05136        -1.15277
C         -0.05824         3.34978        -0.65799
C          0.80976         5.35700         0.42908
C         -0.23700         4.49395         0.16944
C          0.82924         7.62770         1.42865
C         -0.16900         8.43102         1.95283
C          1.10386        10.49347         1.56507
C         -0.07043         9.84644         1.90173
C          1.14238        11.94913         1.45452
C         -0.05717        12.69839         1.58273
C          1.12044        14.81288         1.31979
C         -0.06529        14.07904         1.55167
C          1.13279        16.26316         1.31026
C         -0.09191        16.99762         1.14654
C          1.03630        19.18349         1.31938
C         -0.13355        18.35473         1.02419
C          1.14630        20.57784         0.85785
C         -0.03502        21.24330         0.35650
C          1.26874        23.25082        -0.17303
C          0.00335        22.50393        -0.13242
C          1.25914        24.71940        -0.47791
C          0.01432        25.52144        -0.61462
C          1.40129        27.43479        -1.40166
C          0.09222        26.81132        -0.96573
C          1.38182        28.94865        -1.41115
C          0.22978        29.62563        -1.82531
C          1.36039        31.77806        -1.69430
C          0.20839        31.01352        -1.94327
C          1.36103        33.22464        -1.84024
C          0.18327        33.93887        -2.16978
C          1.39436        36.04666        -2.20411
C          0.19530        35.31313        -2.34131
C          1.42888        37.46544        -2.42058
C          3.54345         3.61128        -1.44127
C          2.30842         3.90150        -0.87912
C          3.19734         6.03182        -0.00532
C          2.13227         5.12076        -0.10512
C          2.97969         7.43842         0.21492
C          2.04017         8.19941         0.89244
C          3.63896        10.41720         1.25395
C          2.34249         9.59405         1.53291
C          3.63542        11.96847         1.22332
C          2.33774        12.68019         1.21148
C          3.53284        14.85402         0.73072
C          2.32243        14.08992         1.10655
C          3.59329        16.29211         1.03741
C          2.36175        16.95294         1.32150
C          3.63245        19.13915         1.27224
C          2.38405        18.40637         1.48975
C          3.60812        20.55096         1.22414
C          2.37449        21.24412         0.90742
C          3.58972        23.37372         0.73384
C          2.44974        22.64592         0.50687
C          3.62633        24.85400         0.57084
C          2.43130        25.54092        -0.02877
C          3.75468        27.57798        -0.48755
C          2.57564        26.88427        -0.61745
C          3.79796        29.00558        -0.81061
C          2.56786        29.68296        -1.16187
C          3.77271        31.84153        -1.12818
C          2.56286        31.10177        -1.32527
C          3.78363        33.26052        -1.29463
C          2.57218        33.94410        -1.65830
C          3.81436        36.08400        -1.72977
C          2.59074        35.35841        -1.85427
C          3.83116        37.49559        -1.99041
C          2.60064        38.16124        -2.32524
C          5.91984         3.92384        -1.66424
C          4.73189         4.33052        -1.10023
C          5.95001         6.23756         0.14604
C          4.61890         5.52057        -0.19935
C          6.05752         7.70395         0.40661
C          4.98829         8.54956         0.23476
C          6.13989        10.54018         0.92253
C          4.90919         9.84115         0.81277
C          6.11584        11.99922         0.91527
C          4.87662        12.65990         0.86052
C          6.12101        14.84081         0.73355
C          4.87293        14.09374         0.58680
C          6.06179        16.29999         0.62264
C          4.80901        17.00759         0.95029
C          6.10048        19.14354         1.31190
C          4.85453        18.42640         1.14631
C          6.04726        20.57102         1.55058
C          4.83955        21.26258         1.38658
C          6.04285        23.55409         1.45270
C          4.76786        22.74574         1.37572
C          6.10673        24.90816         0.84949
C          4.92190        25.56648         0.48757
C          6.19257        27.59034        -0.00533
C          4.95990        26.91560         0.02387
C          6.29126        28.96829        -0.61544
C          4.97987        29.72398        -0.66850
C          6.14915        31.91435        -0.51846
C          4.97557        31.15729        -0.79114
C          6.17647        33.31527        -0.69877
C          4.98980        33.99054        -1.11851
C          6.23037        36.13850        -1.28519
C          5.01146        35.41137        -1.36435
C          6.25331        37.53600        -1.61831
C          5.03975        38.19464        -1.94199
C          8.41448         4.15907        -2.02996
C          7.23090         4.40310        -1.22051
C          8.56339         6.30686        -0.11351
C          7.27094         5.58364        -0.22572
C          8.64508         7.57289         0.64373
C          7.29410         8.32690         0.90856
C          8.59602        10.49912         0.63780
C          7.33513         9.80316         0.87994
C          8.59437        12.02307         0.64325
C          7.32913        12.73315         0.84936
C          8.60564        14.87326         1.00197
C          7.34060        14.15971         0.87869
C          8.63080        16.27027         1.06386
C          7.40150        17.06614         0.83089
C          8.59255        19.07428         1.71410
C          7.32460        18.44084         1.31964
C          8.61287        20.59187         1.86951
C          7.29675        21.31686         1.85472
C          8.60623        23.48007         1.35495
C          7.32791        22.82130         1.71127
C          8.59743        24.86020         1.02322
C          7.35953        25.56808         0.76981
C          8.63924        27.66609         0.45644
C          7.39199        26.93659         0.37838
C          8.61141        29.12343         0.32894
C          7.43621        29.75368        -0.03465
C          8.61386        32.00139         0.18821
C          7.31659        31.20984         0.04089
C          8.58963        33.41719        -0.20164
C          7.41640        34.06878        -0.54369
C          8.64617        36.20955        -0.92013
C          7.44411        35.48597        -0.89574
C          8.69381        37.58189        -1.35010
C          7.48206        38.23378        -1.65041
C         10.81503         4.36239        -2.42944
C          9.64013         4.72408        -1.69977
C         11.04026         6.26696        -0.27601
C          9.70738         5.76892        -0.68469
C         11.13634         7.67372         0.36040
C          9.87118         8.38054         0.55744
C         11.09795        10.49154         0.80199
C          9.87832         9.76452         0.71884
C         11.04316        11.91566         1.19418
C          9.83786        12.72573         0.98599
C         11.09452        14.83335         1.25715
C          9.83977        14.11518         1.13468
C         11.09850        16.26573         1.29575
C          9.86620        16.97870         1.26745
C         11.07572        19.12265         1.49595
C          9.86830        18.38995         1.43378
C         11.06796        20.57462         1.49833
C          9.85729        21.31397         1.56987
C         11.04074        23.45719         1.12776
C          9.82340        22.74766         1.36481
C         11.06384        24.85994         1.01200
C          9.82776        25.57192         0.93386
C         11.05347        27.76711         1.17173
C          9.81683        26.99774         0.76820
C         11.09920        29.17812         0.64440
C          9.85878        29.87063         0.44827
C         11.10736        31.94241        -0.05683
C          9.87697        31.25239         0.20017
C         11.10255        33.32423        -0.28166
C          9.87437        34.12201        -0.12036
C         11.18400        36.19940        -0.90430
C          9.90641        35.58658        -0.49829
C         11.18056        37.58978        -1.26860
C          9.94185        38.25799        -1.44447
C         13.21564         4.52594        -2.90628
C         12.09310         4.85051        -2.12325
C         13.58284         6.49407        -0.80094
C         12.26495         5.72598        -0.94336
C         13.58638         7.85023        -0.17328
C         12.38273         8.45790         0.25277
C         13.58775        10.59268         0.59818
C         12.35143         9.84306         0.59500
C         13.59718        11.97454         0.90752
C         12.37016        12.67903         1.30620
C         13.55997        14.85431         1.22175
C         12.32274        14.14520         1.22592
C         13.56877        16.28558         1.35525
C         12.33029        16.98813         1.37655
C         13.55773        19.13457         1.42560
C         12.32296        18.41989         1.42781
C         13.54565        20.56526         1.32663
C         12.31066        21.25072         1.29829
C         13.60089        23.43728         0.92005
C         12.28206        22.68232         0.96687
C         13.56711        24.90613         1.04239
C         12.32613        25.60094         0.96696
C         13.56472        27.72783         0.95399
C         12.33805        27.00643         0.97177
C         13.57454        29.15482         0.77428
C         12.32289        29.84692         0.54608
C         13.57528        31.90080        -0.00041
C         12.36245        31.23105         0.11236
C         13.63494        33.21132        -0.62574
C         12.29850        33.99062        -0.76248
C         13.63386        36.09344        -1.07506
C         12.36738        35.45999        -0.88906
C         13.64237        37.52177        -1.28521
C         12.42488        38.22877        -1.44268
C         15.57058         4.87187        -3.64265
C         14.45991         5.19673        -2.75173
C         15.85032         7.07884        -1.83613
C         14.60770         6.22613        -1.81961
C         16.05447         7.77259        -0.48131
C         14.79779         8.57644        -0.15692
C         16.03029        10.70558         0.18764
C         14.81616         9.93602         0.23971
C         16.00961        12.06377         0.47805
C         14.79461        12.73132         0.85091
C         16.02617        14.84404         1.41787
C         14.77323        14.13281         1.13656
C         16.04395        16.30518         1.50638
C         14.80393        17.00318         1.44792
C         16.04099        19.13936         1.55151
C         14.80010        18.43150         1.47480
C         16.03664        20.57009         1.48187
C         14.80425        21.27759         1.31263
C         16.03429        23.40233         1.42145
C         14.83371        22.69281         1.23522
C         15.99315        24.86714         1.56891
C         14.76426        25.61011         1.23030
C         16.04504        27.74679         1.12399
C         14.79494        27.02510         1.12425
C         16.01753        29.15968         0.93996
C         14.81058        29.85392         0.76419
C         16.07434        31.95395         0.02473
C         14.82293        31.37661         0.67195
C         16.09838        33.25568        -0.46934
C         14.88434        33.98645        -0.63878
C         16.11703        36.09884        -0.96127
C         14.86448        35.37165        -0.95256
C         16.09341        37.53615        -1.07739
C         14.87177        38.21091        -1.29446
C         17.97248         5.02103        -4.24546
C         16.83257         5.33084        -3.39915
C         18.42783         6.75322        -1.93945
C         17.05198         6.23640        -2.23927
C         18.51230         8.08851        -1.28552
C         17.35890         8.56882        -0.48206
C         18.49898        10.85198        -0.51630
C         17.32438        10.04774        -0.14441
C         18.48002        12.30495        -0.29141
C         17.21015        12.89996         0.24823
C         18.54874        14.96893         0.87599
C         17.33353        14.16288         1.00959
C         18.51981        16.27189         1.40014
C         17.28150        16.98358         1.60680
C         18.49779        19.15900         1.74125
C         17.28010        18.43033         1.67878
C         18.51133        20.57427         1.58641
C         17.26954        21.28990         1.51084
C         18.52215        23.44289         1.44605
C         17.27324        22.71613         1.50034
C         18.55168        24.85815         1.37571
C         17.31244        25.63164         1.56494
C         18.53598        27.73294         1.04359
C         17.28667        27.05986         1.22674
C         18.55997        29.13649         0.86399
C         17.29932        29.95241         1.03293
C         18.63485        31.81061        -0.18761
C         17.28054        31.13690         0.07934
C         18.66452        33.24211        -0.62716
C         17.35041        33.90943        -1.04556
C         18.54376        36.16713        -0.64073
C         17.34311        35.42278        -0.81487
C         18.50975        37.60477        -0.71701
C         17.29856        38.26020        -0.98051
C         19.21937         5.46552        -3.98239
C         20.68091         7.22463        -2.97278
C         19.62539         6.18431        -2.70806
C         20.69645         8.42066        -2.35929
C         19.62544         8.88232        -1.47611
C         20.87733        11.03661        -0.99455
C         19.66695        10.25288        -0.97139
C         20.92847        12.32392        -0.51193
C         19.75502        13.02739        -0.10663
C         20.98788        15.09030         0.56807
C         19.75854        14.34636         0.40495
C         21.02481        16.27296         1.23394
C         19.79911        16.91894         1.70746
C         21.01274        19.22433         1.79368
C         19.77604        18.46600         1.95798
C         20.98403        20.55920         1.55176
C         19.74625        21.28981         1.49694
C         20.95961        23.43689         1.16702
C         19.74973        22.71053         1.37009
C         20.96673        24.80415         1.04898
C         19.76477        25.56012         1.16381
C         20.98861        27.72514         0.99945
C         19.77124        26.99945         1.06999
C         21.00415        29.09579         0.85533
C         19.78819        29.82659         0.74607
C         20.86101        32.09166         0.89647
C         19.79550        31.24387         0.48768
C         20.89457        33.42821         0.59726
C         19.87105        34.05758        -0.25790
C         20.93957        36.30779        -0.16421
C         19.79676        35.54158        -0.33866
C         20.90051        37.71861        -0.27311
C         19.71239        38.35549        -0.54117
O          2.62661        25.53293         1.42705
O          8.59676        11.27998        -0.64136
O         17.51695        13.05043        -1.17733
O         11.20972         6.43608         1.14969
O         12.96085        22.96825        -0.31942
O          4.06641        14.50425        -0.58813
O         11.69707        12.14666         2.49334
O         16.60607        25.32142         2.82552
O         13.27709         5.31665         0.01462
O         19.83108        17.49676         3.04762
O          1.62221        18.91762         2.62512
O          1.57570        23.77562        -1.54359
O          7.99599         7.61062         1.95548
O          5.14310        23.46278         2.60240
O          9.92867        35.15976         0.92602
O          8.65031        19.70825         3.04118
O         16.86271        14.10738         2.38395
O          0.52971         6.27894         1.43584
O         19.73204        33.44479        -1.61435
O          3.86054        11.21446         2.47355
O         17.81301         5.69573        -1.12172
O         17.99082        30.91529        -1.16246
O          5.24886         5.42199         1.13360
O          7.40269         4.22072         0.23581
O         12.91527        33.29902        -1.89818
O          7.74883        31.73114         1.34612
O          6.81187        16.86726        -0.49746
O          7.28232        22.19839         3.03196
O          3.90415         8.17403        -0.54205
O         17.70014         9.00827         0.86619
O          2.53127         9.13837         2.91111
H          2.86870         9.90822         3.42507
O          6.65798        28.75357        -2.03230
H          5.96326        28.18870        -2.43250
O          1.59446        27.01501        -2.79313
H          2.37990        27.48661        -3.14116
O         17.24451        33.74050        -2.48371
H         18.16458        33.71118        -2.83318
O         20.25143         5.17184        -1.87458
H         19.52384         4.76454        -1.34824
O         15.69675         8.14194        -2.81971
H         15.46761         7.72966        -3.67946
O         10.93458        27.90711         2.64007
H         10.10734        28.40330         2.82119
O         17.35764        30.54121         2.37086
H         17.22928        29.82163         3.02406
O         16.15390         6.76112         0.53325
H         16.59457         7.16662         1.31100
O         14.79128        31.89143         2.04443
H         14.02832        31.47719         2.50038
H          1.34659         2.14595        -1.75309
H         -0.91500         2.69266        -0.85874
H         -1.20856         4.67584         0.64639
H         -1.10330         7.96713         2.29282
H         -0.98790        10.40833         2.11913
H         -1.01393        12.18884         1.74899
H         -1.01357        14.60533         1.72257
H         -1.01618        16.43213         0.96449
H         -1.06975        18.82832         0.69904
H         -0.99365        20.70835         0.37202
H         -0.90177        22.97033        -0.54416
H         -0.95698        25.06794        -0.36590
H         -0.82677        27.41245        -1.01910
H         -0.67984        29.06350        -2.07559
H         -0.72573        31.49638        -2.25775
H         -0.76752        33.40406        -2.29465
H         -0.73329        35.84215        -2.59968
H          0.49305        37.98162        -2.67997
H          3.63740         2.74607        -2.11433
H          2.62264        39.24551        -2.50760
H          5.90180         3.09190        -2.38582
H          5.05774        39.27007        -2.17290
H          8.33217         3.49864        -2.90546
H          7.49211        39.29524        -1.93846
H         10.70674         3.65122        -3.26169
H          9.94668        39.32041        -1.72938
H         13.10091         3.80492        -3.72883
H         12.45657        39.30402        -1.67215
H         15.38346         4.18918        -4.48532
H         14.87737        39.30382        -1.41936
H         17.78292         4.41785        -5.14723
H         17.28208        39.35540        -1.08100
H         20.04051         5.18776        -4.66107
H         21.51023         6.93706        -3.63619
H         21.52451         9.11121        -2.57082
H         21.81623        10.56195        -1.30812
H         21.90558        12.82340        -0.45991
H         21.93066        14.65093         0.21540
H         21.99175        16.75574         1.42940
H         21.97347        18.71172         1.93388
H         21.93779        21.09430         1.46387
H         21.91452        22.90451         1.07510
H         21.92260        25.31051         0.86422
H         21.94794        27.19508         1.05918
H         21.96335        29.62586         0.77815
H         21.66746        31.66216         1.50853
H         21.70034        34.05129         1.00820
H         21.90132        35.82233         0.05039
H         21.82552        38.29562        -0.13808
H         19.66824        39.45137        -0.61750
