         490
 CSIRO Nanostructure Databank - Neutral Graphene Oxide Data Set
C         37.55674        50.21952        -1.65257
C         36.46024        50.96107        -1.99974
C         37.60932        53.05684        -1.55998
C         36.50083        52.39805        -1.98234
C         39.99494        48.67806        -0.96514
C         39.96763        50.10312        -1.05799
C         38.80299        50.83584        -1.28995
C         40.10450        53.04234        -0.83154
C         38.79749        52.31329        -1.09903
C         40.22492        54.50926        -0.98993
C         42.39228        48.55859        -0.39529
C         41.14006        47.94835        -0.70185
C         42.38476        50.03788        -0.34957
C         41.32131        50.77692        -1.13550
C         42.57436        52.91048        -0.84206
C         41.37434        52.27240        -0.87291
C         42.71601        54.37263        -1.20477
C         41.41172        55.12173        -1.10791
C         44.82550        45.72181        -0.19949
C         43.64665        46.42060        -0.23958
C         44.85303        48.55799         0.03160
C         43.59641        47.85268        -0.18833
C         44.88753        49.94649         0.02839
C         43.67892        50.75567        -0.17637
C         45.04420        52.87197        -0.20519
C         43.86525        52.12157        -0.81397
C         45.06206        54.30578        -0.20122
C         43.90350        55.06167        -0.55214
C         45.12466        57.11906        -0.06555
C         43.95510        56.45039        -0.45542
C         47.36441        44.22299        -0.24309
C         47.31862        45.67196        -0.20967
C         46.09953        46.37540        -0.11640
C         47.32374        48.47777         0.20525
C         46.10560        47.81110         0.07228
C         47.35203        49.89095         0.59650
C         46.08629        50.68760         0.41554
C         47.37990        52.82494         0.58604
C         46.15123        52.15865         0.24523
C         47.40548        54.23494         0.57749
C         46.25391        54.98681         0.21052
C         47.55735        57.11748         0.49965
C         46.29625        56.41958         0.23369
C         47.64878        58.52594         0.41497
C         49.80519        44.21569        -0.79052
C         48.50986        43.53645        -0.44521
C         49.77928        45.70296        -0.48050
C         48.57426        46.37847        -0.27945
C         49.74118        48.56169        -0.27828
C         48.58400        47.82791        -0.09520
C         49.70480        50.07155        -0.30659
C         48.69039        50.57464         0.71874
C         49.84622        52.71973         0.78829
C         48.61382        52.08598         0.71358
C         49.91640        54.14146         1.13827
C         48.62054        54.93992         1.01464
C         49.98995        57.03403         0.94891
C         48.72807        56.39178         0.80609
C         50.04390        58.45143         0.87680
C         48.85229        59.17132         0.62584
C         52.31271        41.63980         0.63023
C         51.09002        42.22838         0.17795
C         52.25463        44.37909         0.08894
C         51.02335        43.54689        -0.19144
C         52.23563        45.78498        -0.45561
C         51.02030        46.43198        -0.57367
C         52.25454        48.63678        -0.58391
C         50.96350        47.90966        -0.87777
C         52.26915        50.00222        -0.28008
C         51.05025        50.72423        -0.00932
C         52.36795        52.58869         1.03508
C         51.07146        51.99554         0.53251
C         52.40628        54.11491         1.06741
C         51.20903        54.85714         1.06620
C         52.48098        56.95118         1.10566
C         51.22442        56.27449         1.07722
C         52.51867        58.39084         1.09924
C         51.31312        59.13516         1.02821
C         52.57568        61.20826         1.20413
C         51.37112        60.54832         1.08798
C         54.94339        40.57558         1.64029
C         54.79038        41.69935         0.75677
C         53.54271        42.27009         0.41899
C         54.77866        44.42627        -0.08153
C         53.50537        43.60098        -0.33632
C         54.72343        45.81951        -0.66189
C         53.48946        46.49583        -0.62808
C         54.72650        48.62436        -0.75779
C         53.47798        47.92204        -0.69836
C         54.74282        50.02138        -0.56327
C         53.53682        50.70545        -0.19255
C         54.85740        52.65868         0.56673
C         53.56023        52.02152         0.29434
C         54.90719        54.01466         1.21123
C         53.64130        54.79068         1.19628
C         54.97645        56.90795         1.15653
C         53.69573        56.20794         1.17124
C         55.00252        58.33527         1.15563
C         53.77290        59.07433         1.16280
C         55.06032        61.18677         1.28950
C         53.79719        60.49391         1.23390
C         55.10298        62.59370         1.61359
C         57.30634        40.24068         0.89251
C         56.12334        39.90815         1.77621
C         57.34367        41.77471         0.70156
C         56.02287        42.25741         0.15168
C         57.28516        44.35871        -0.67858
C         56.01444        43.63033        -0.42697
C         57.07012        45.61239        -1.53098
C         55.93188        46.49984        -1.00521
C         57.16081        48.65944        -1.40316
C         55.92847        47.89702        -1.06395
C         57.27865        50.09790        -1.01744
C         55.99243        50.78979        -0.74945
C         57.34104        52.87272        -0.02376
C         56.04096        52.19515        -0.20786
C         57.40279        54.06361         0.64913
C         56.24374        54.72533         1.38381
C         57.44262        56.89871         1.11545
C         56.20064        56.21443         1.12098
C         57.48622        58.31355         1.13502
C         56.25146        59.02966         1.14600
C         57.52178        61.17816         0.98610
C         56.25138        60.46185         1.16041
C         57.52527        62.69408         1.24526
C         56.26649        63.28524         1.70148
C         60.01773        37.93853         2.37241
C         58.76383        38.45590         1.85621
C         59.83948        40.66299         1.50799
C         58.63880        39.73000         1.41576
C         59.81905        41.82023         0.52454
C         58.53765        42.23306        -0.16266
C         59.72606        44.32571        -1.02003
C         58.48108        43.71199        -0.55885
C         59.70248        45.65025        -1.49856
C         58.41134        46.33613        -1.94404
C         59.68723        48.58163        -1.49790
C         58.41076        47.86604        -1.70390
C         59.67887        49.99642        -1.42782
C         58.47446        50.78426        -1.09956
C         59.81561        52.86833        -0.24100
C         58.50722        52.35401        -0.86724
C         59.88040        53.95054         0.78838
C         58.65777        54.77319         0.87084
C         59.95102        56.83316         1.44209
C         58.68109        56.12600         1.12758
C         59.98050        58.31160         1.29470
C         58.76945        59.01738         1.17599
C         60.00514        61.15952         1.14608
C         58.79649        60.44791         1.10816
C         60.02333        62.61793         1.29632
C         58.82172        63.33771         1.53035
C         60.08942        65.35169         2.00984
C         58.87812        64.69154         1.90923
C         62.62007        36.63165         2.96426
C         62.49015        38.05890         2.66429
C         61.18493        38.61080         2.20584
C         62.39158        40.78551         1.51189
C         61.16297        39.86335         1.33627
C         62.30245        41.92723         0.51915
C         60.99937        42.46118         0.16341
C         62.12891        43.86840        -1.45696
C         60.93292        43.56271        -0.78169
C         62.10280        45.84196        -2.15801
C         60.89114        46.43424        -1.76666
C         62.18195        48.53429        -1.62021
C         60.91285        47.86534        -1.61651
C         62.18073        49.95799        -1.60203
C         60.94737        50.58293        -1.69397
C         62.30611        52.62381        -0.08925
C         60.99284        52.56792        -0.83113
C         62.42891        54.03916         0.41163
C         61.23091        54.60766         1.05476
C         62.60142        56.79767         1.46374
C         61.25097        56.06055         1.46808
C         62.48598        58.30342         1.23283
C         61.23612        59.00314         1.25518
C         62.48085        61.13034         1.04218
C         61.24441        60.43369         1.16747
C         62.47928        62.62463         0.79693
C         61.25067        63.31554         1.32562
C         62.55593        65.39900         1.74489
C         61.29900        64.69286         1.67582
C         62.63334        66.83099         1.82487
C         65.07154        36.69151         2.73032
C         63.83689        36.03597         3.08728
C         65.02996        37.98367         2.19269
C         63.78679        38.77441         2.24885
C         64.81241        40.47892         0.81363
C         63.68997        40.00152         1.43565
C         64.76042        41.68530        -0.09046
C         63.46103        42.45304        -0.03781
C         64.63632        44.19380        -1.45398
C         63.39970        43.52895        -0.97485
C         64.61403        45.60816        -2.07416
C         63.37800        46.43819        -2.05320
C         64.68029        48.54351        -1.73881
C         63.41651        47.81809        -1.77281
C         64.70114        49.96077        -1.57349
C         63.44590        50.79852        -1.70687
C         64.69640        52.73182        -0.70561
C         63.50124        52.07427        -0.83615
C         64.78172        54.12408        -0.28073
C         63.59167        54.78794         0.19819
C         64.84145        56.87508         0.34605
C         63.66142        56.16839         0.57018
C         64.94900        58.24625         0.88114
C         63.68409        59.01202         1.08211
C         64.93174        61.17712         0.50399
C         63.68285        60.43231         0.95490
C         64.96527        62.61714         0.98573
C         63.76507        63.29889         1.20974
C         65.02305        65.34755         1.72731
C         63.78131        64.66159         1.61530
C         65.06895        66.73307         2.33505
C         63.81401        67.49422         1.99443
C         67.65797        34.05471         3.48327
C         66.44147        34.70651         3.39512
C         67.51553        36.57887         2.26277
C         66.33548        35.97995         2.79036
C         67.43191        37.85280         1.59126
C         66.18837        38.55176         1.56083
C         67.25080        40.40635         0.31408
C         66.08921        39.80972         0.91036
C         67.22462        41.74127        -0.16649
C         65.99027        42.56604         0.15115
C         67.15375        44.40557        -1.25410
C         65.87820        43.95613        -0.57738
C         67.15824        45.69759        -1.77451
C         65.91348        46.39318        -2.26975
C         67.13848        48.53112        -1.87244
C         65.89002        47.84534        -1.86174
C         67.16024        49.94059        -1.65808
C         65.92365        50.62255        -1.46983
C         67.28239        52.69795        -0.84578
C         65.96297        52.00241        -0.94878
C         67.33547        54.17525        -0.49728
C         65.98087        54.84485        -0.39837
C         67.20811        57.01935        -0.49431
C         66.01654        56.24115        -0.15948
C         67.24511        58.39341        -0.23843
C         66.24784        58.99100         0.66043
C         67.41130        61.21067         0.32662
C         66.24164        60.48553         0.94736
C         67.46799        62.63467         0.73230
C         66.18697        63.31985         1.03096
C         67.34435        65.55207         0.92266
C         66.19460        64.70319         1.32404
C         67.47402        66.91280         1.47295
C         66.36286        67.49903         2.10103
C         67.71138        69.47687         2.52852
C         66.50521        68.79408         2.62945
C         70.27759        32.79706         3.89869
C         70.13852        33.95729         3.11654
C         68.84696        34.65016         2.99803
C         70.02832        36.61477         1.95696
C         68.76400        35.90918         2.37950
C         69.80486        37.68964         0.91879
C         68.56246        38.37591         0.89310
C         69.58161        40.18893        -0.45094
C         68.45967        39.64553         0.21438
C         69.57541        41.53607        -0.87343
C         68.37833        42.31047        -0.72483
C         69.57788        44.29042        -1.60187
C         68.36702        43.67941        -1.17782
C         69.60001        45.68546        -1.84411
C         68.39036        46.38861        -1.93788
C         69.60063        48.53948        -2.15420
C         68.37403        47.83002        -2.02702
C         69.58648        49.97260        -2.13056
C         68.39574        50.65747        -1.75908
C         69.59921        52.79847        -1.79816
C         68.45810        52.06362        -1.49129
C         69.69256        54.26800        -1.42068
C         68.28768        54.91734        -1.43865
C         69.46561        57.13798        -1.55723
C         68.33018        56.40109        -1.15177
C         69.47538        58.57253        -1.42754
C         68.17431        59.26444        -1.05118
C         69.44377        61.48820        -1.05397
C         68.35214        60.65630        -0.47275
C         69.68648        62.85092        -0.54775
C         68.63994        63.44752         0.30406
C         69.79701        65.66388         0.21642
C         68.52786        64.93245         0.27313
C         69.88854        66.93700         0.78015
C         68.72408        67.58381         1.38302
C         70.12402        69.59340         1.84439
C         68.84602        68.89393         1.91861
C         70.25971        70.92445         2.29417
C         72.58973        32.56506         3.22807
C         71.48812        32.10802         3.95954
C         72.47938        33.71757         2.45717
C         71.26669        34.43936         2.39433
C         72.12659        36.07141         0.72539
C         71.15894        35.66888         1.62617
C         72.02053        37.28676         0.00722
C         70.88161        38.09112         0.09391
C         71.99907        40.04719        -1.07242
C         70.72315        39.27756        -0.83892
C         71.99292        41.35665        -1.39791
C         70.77844        42.15575        -1.38775
C         71.92925        44.18424        -2.34379
C         70.78688        43.51199        -1.73301
C         71.97514        45.52781        -2.49734
C         70.92913        46.39748        -1.84045
C         71.99773        48.58745        -2.54237
C         70.84496        47.84820        -2.27415
C         71.96188        49.98320        -2.66549
C         70.78192        50.70559        -2.40908
C         71.77001        52.95941        -2.90676
C         70.74157        52.15587        -2.37078
C         71.69378        54.35805        -2.91681
C         70.66233        55.05474        -2.27592
C         71.68998        57.27806        -2.61257
C         70.60528        56.47577        -2.16531
C         71.69219        58.64251        -2.43904
C         70.57949        59.31193        -1.85628
C         71.83389        61.57772        -1.88754
C         70.58902        60.80215        -1.78169
C         71.88413        62.90118        -1.56965
C         70.80429        63.57666        -0.88808
C         72.23638        65.58822        -0.14702
C         70.90585        65.08425        -0.63055
C         72.32737        66.79776         0.46640
C         71.17027        67.58043         0.83119
C         72.51419        69.62425         1.28483
C         71.27791        68.92350         1.32556
C         72.61495        70.92900         1.73601
C         71.48074        71.58499         2.24346
O         62.03447        44.54586        -2.67899
O         66.77994        51.95912         0.31804
O         55.89042        42.45073        -1.31294
O         60.96575        51.93881        -2.08114
O         68.56892        62.92776         1.68012
O         39.22472        52.67105         0.28333
O         57.47949        62.14506        -0.11530
O         42.72020        50.66631         0.93096
O         55.74252        51.96771        -1.61982
O         46.53304        50.22666         1.76162
O         69.46812        61.40984        -2.53277
O         49.12774        54.49713         2.32023
O         65.99476        58.26119         1.91684
O         67.46052        65.49103        -0.57972
O         63.21474        38.93201         3.61128
O         60.58762        53.69584         2.04666
O         55.00256        52.79538         2.05368
O         57.62547        48.48410        -2.79606
O         60.54855        56.33517         2.71222
O         64.71197        44.38691        -2.88845
O         56.48061        45.05179        -2.73463
H         57.18788        45.07648        -3.42855
O         49.95961        44.10438        -2.25058
H         49.09776        44.33914        -2.65422
O         66.33527        60.70237         2.36964
H         66.24630        59.81986         2.80521
O         44.21755        51.85115        -2.21463
H         44.10387        52.70927        -2.69522
O         58.35988        52.95497        -2.17014
H         59.10713        52.63310        -2.72180
O         62.43965        62.75438        -0.68165
H         62.35171        63.70996        -0.88822
O         70.35151        38.70199        -2.14188
H         70.17843        39.44987        -2.75229
O         56.56780        54.65519         2.80275
H         56.34064        53.74591         3.10289
O         49.27544        50.46460        -1.63607
H         49.80899        49.93152        -2.27170
O         67.49027        59.47051        -2.33807
H         68.00721        60.17044        -2.80972
O         67.72849        54.74193        -2.76794
H         68.20114        55.34237        -3.38211
O         66.09451        46.44895        -3.72622
H         65.86196        45.55498        -4.06696
O         58.47798        41.52963        -1.45145
H         57.68150        41.89073        -1.91548
O         65.02778        66.52736         3.79542
H         64.21833        66.00967         3.99294
O         52.29591        44.53571         1.55046
H         51.52358        45.07903         1.81644
O         54.93704        44.64860         1.34954
H         54.04422        44.82932         1.73549
O         65.65594        44.95114         0.46850
H         66.23150        44.70054         1.22888
O         41.68778        50.64239        -2.54905
H         42.60820        50.99945        -2.65439
O         58.53470        46.20969        -3.39297
H         58.08993        46.99860        -3.78652
O         63.13458        56.64685         2.80930
H         62.36466        56.67392         3.42276
O         49.22027        50.17420         2.00736
H         48.52490        50.36890         2.67357
O         63.49332        51.30986        -3.08020
H         62.64460        51.78267        -3.23691
O         64.88815        61.19416        -0.94187
H         64.06539        61.67914        -1.19716
O         64.87768        41.20792        -1.45812
H         64.06348        40.70922        -1.68022
O         61.23675        39.39991        -0.03302
H         60.40898        38.91170        -0.23124
O         70.70528        65.68050        -1.96880
H         69.75612        65.57397        -2.19667
O         70.48578        37.34391         3.16997
H         71.33145        37.78347         2.93701
O         57.05900        39.58309        -0.37536
H         57.66393        40.00799        -1.03724
O         62.38037        41.37825         2.84840
H         62.64823        40.65048         3.47233
O         50.76849        48.06263        -2.34286
H         50.23663        47.29542        -2.64606
O         57.43717        42.40888         1.99123
H         58.23541        42.06835         2.47182
O         59.76722        41.21959         2.85577
H         60.66318        41.60203         3.06193
O         66.06231        42.80629         1.58044
H         65.14958        42.92239         1.92120
O         70.28495        54.34141        -0.09928
H         69.56841        54.18050         0.56617
O         67.85560        54.25826         0.85981
H         67.40913        53.53677         1.36329
O         71.33260        46.49010        -0.42212
H         71.33469        45.57715        -0.06239
O         43.07628        54.33782        -2.64727
H         43.26767        55.25979        -2.92406
O         53.37342        43.35751        -1.74178
H         54.19441        42.90215        -2.04433
O         62.13996        51.71049         1.04977
H         61.61947        52.20364         1.73577
O         52.45034        52.12863         2.42349
H         53.36895        52.32439         2.73222
H         37.49915        49.12398        -1.71372
H         35.53474        50.46027        -2.31533
H         37.61661        54.15462        -1.51672
H         35.61246        52.95856        -2.30590
H         39.05414        48.12080        -1.08103
H         39.30727        55.11303        -0.93251
H         41.05683        46.85242        -0.68486
H         41.42987        56.21631        -1.21889
H         44.78377        44.62674        -0.27442
H         42.70882        45.85645        -0.33685
H         45.10138        58.21579        -0.02899
H         43.07640        57.05983        -0.70640
H         46.43826        43.65979        -0.06070
H         46.76124        59.13018         0.18701
H         48.47966        42.43747        -0.46562
H         48.87168        60.26629         0.55662
H         52.28143        40.62005         1.04158
H         50.20473        41.57851         0.11609
H         52.57363        62.30499         1.24068
H         50.45017        61.14379         1.05453
H         54.07332        40.25650         2.23427
H         54.17525        63.09101         1.92634
H         56.19472        39.06225         2.47635
H         56.26187        64.30024         2.12130
H         59.98625        36.97979         2.90957
H         57.89400        37.78276         1.85518
H         60.10296        66.40409         2.32182
H         57.95277        65.24661         2.11217
H         61.71185        36.02188         3.06926
H         61.71250        67.41711         1.68789
H         63.86349        34.96967         3.34942
H         63.82602        68.59356         2.02136
H         67.68838        33.06239         3.95227
H         65.55399        34.21685         3.81696
H         67.77589        70.48381         2.96193
H         65.65770        69.26860         3.14344
H         69.42916        32.41984         4.48535
H         69.38884        71.46411         2.68959
H         73.54484        32.02367         3.27255
H         71.57443        31.20643         4.58153
H         73.36168        34.07814         1.91070
H         72.99496        35.42953         0.51999
H         72.82564        37.54516        -0.69338
H         72.95253        39.49922        -1.08386
H         72.94462        41.85708        -1.62941
H         72.74943        43.56804        -2.74138
H         72.84312        45.99316        -2.98774
H         72.96668        48.07565        -2.63187
H         72.89848        50.51820        -2.87611
H         72.62829        52.48231        -3.40035
H         72.47674        54.90744        -3.45927
H         72.56451        56.80369        -3.07654
H         72.55808        59.22200        -2.78479
H         72.74625        61.08261        -2.24867
H         72.81868        63.45432        -1.74088
H         73.15035        65.02285        -0.37965
H         73.32441        67.17593         0.73534
H         73.40629        69.13337         0.87332
H         73.57888        71.45443         1.69091
H         71.55828        72.62228         2.59728
