         260
 CSIRO Nanostructure Databank - Neutral Graphene Oxide Data Set
C         30.36360        31.53268         0.87000
C         30.44067        32.71813         0.43167
C         30.50752        35.86708        -0.13975
C         30.20324        37.05922        -0.46212
C         30.48670        40.24501        -0.72769
C         30.40078        41.48732        -0.76009
C         32.79726        28.70855         1.19622
C         31.69684        29.31698         1.22392
C         32.60384        31.47543         1.77486
C         31.37869        30.67883         1.31376
C         32.57637        32.99830         1.58886
C         31.35318        33.73134         0.98817
C         32.80538        35.73591         0.41472
C         31.51709        35.08257         0.43420
C         33.04411        36.82286        -0.42631
C         31.19473        37.88627        -1.09312
C         32.84036        39.91039        -0.85137
C         31.46081        39.22884        -0.92339
C         32.87944        41.43764        -0.91336
C         31.53969        42.18682        -1.46468
C         32.91658        44.17088        -1.52289
C         31.82419        43.64054        -1.26899
C         35.50672        27.16742         1.21805
C         35.30247        28.53872         1.72902
C         33.95552        29.13855         2.08556
C         35.13749        31.53957         1.59980
C         33.91127        30.74287         2.03575
C         35.19311        33.03043         1.89910
C         33.87805        33.77795         1.72928
C         35.25757        35.96031         1.21310
C         33.93571        35.20771         1.24204
C         35.35753        37.26793         0.44040
C         34.23333        37.68940        -0.44574
C         35.47612        39.95493        -0.80934
C         34.16795        39.15212        -0.90720
C         35.47725        41.41410        -1.31090
C         34.20886        42.18990        -0.97823
C         35.52057        44.19437        -1.97575
C         34.27273        43.67525        -1.27439
C         35.64194        45.72462        -1.89805
C         37.48670        27.38298        -0.19297
C         36.47577        26.63782         0.65650
C         37.70317        28.64104         0.69548
C         36.48877        29.36195         1.27850
C         37.65967        31.63102         0.89013
C         36.37640        30.85173         1.11741
C         37.83513        32.99571         1.58054
C         36.50961        33.77455         1.76812
C         37.73393        35.94747         1.42356
C         36.54376        35.24836         1.48564
C         37.71329        37.42412         1.21023
C         36.61742        37.99979         0.45267
C         37.78829        40.27213         0.39320
C         36.68058        39.36234        -0.10943
C         37.85611        41.60103        -0.34704
C         36.73167        42.22292        -0.91974
C         37.90008        44.43979        -0.86895
C         36.75916        43.59111        -1.27766
C         38.03110        45.84750        -1.31136
C         36.79881        46.22485        -1.83325
C         40.01614        24.72129        -1.57828
C         39.05220        25.53507        -1.24386
C         39.89168        27.66102        -1.04100
C         38.77553        26.76742        -0.71195
C         40.15624        28.77062        -0.09751
C         38.96842        29.40668         0.55972
C         40.23673        31.60781         0.56841
C         38.92523        30.90196         0.55372
C         40.22405        33.08731         0.59317
C         38.95513        33.82217         0.93368
C         40.21243        35.94961         1.07127
C         39.03191        35.27612         1.26864
C         40.32100        37.41293         1.45758
C         39.02094        38.19265         1.21409
C         40.29799        40.32969         0.91272
C         39.11417        39.44166         0.36454
C         40.42185        41.57511         0.02081
C         39.17265        42.28283        -0.40596
C         40.50278        44.54874        -0.52908
C         39.21277        43.77725        -0.43348
C         40.51106        45.89721        -0.71829
C         39.18310        46.68727        -0.86000
C         40.59629        48.49012        -1.81175
C         39.54150        47.85053        -1.76007
C         42.38424        25.07885        -2.56093
C         40.97371        25.22439        -2.46080
C         42.08090        28.22702        -2.06242
C         40.84710        27.45722        -2.02663
C         42.46844        29.14460        -1.12127
C         41.44289        29.53070        -0.11752
C         42.71599        31.61758         0.45737
C         41.39654        30.96743         0.26851
C         42.74005        33.10139         0.61257
C         41.51692        33.78709         0.60419
C         42.72403        36.00772         0.35196
C         41.43349        35.26258         0.55191
C         42.82094        37.39783         0.91090
C         41.54537        38.16275         0.93968
C         42.81219        40.28487         1.34435
C         41.58248        39.51674         0.87144
C         42.80367        41.78324         0.97868
C         41.71351        42.35116         0.11423
C         43.01709        44.57319         0.07674
C         41.77928        43.80620        -0.26083
C         42.99597        46.04339        -0.11644
C         41.85194        46.60902        -0.97037
C         43.18788        48.63935        -1.21209
C         41.77226        48.21709        -0.90498
C         43.43484        25.73523        -2.62938
C         45.00675        27.62504        -1.91001
C         43.95297        27.06456        -2.58003
C         45.08900        29.11637        -1.53899
C         43.77513        29.94044        -1.22408
C         45.29002        31.58804         0.20027
C         43.94833        30.90332        -0.02773
C         45.27852        33.04916         0.58973
C         43.98409        33.78037         0.47158
C         45.34918        35.96515         0.22006
C         43.99674        35.20818         0.20339
C         45.33675        37.48066         0.32869
C         44.11587        38.14959         0.87213
C         45.32027        40.32934         1.07356
C         44.13501        39.62835         1.00918
C         45.35718        41.78521         1.22644
C         44.09199        42.54272         1.00974
C         45.54660        44.50334         0.31543
C         44.15613        43.92028         0.45014
C         45.55869        46.03248         0.18929
C         44.32510        46.78436        -0.04152
C         44.17875        48.05685        -0.76356
C         47.36701        27.53022        -1.58380
C         46.24988        26.97586        -1.62496
C         47.69628        28.85458        -1.16707
C         46.43010        29.68378        -1.09778
C         47.85840        31.68125        -0.26979
C         46.56439        30.93998        -0.26270
C         48.00676        32.89706         0.68070
C         46.61699        33.77101         0.75037
C         47.60679        36.05753         1.12859
C         46.54656        35.25990         0.65557
C         47.78247        37.41207         0.90644
C         46.61820        38.22690         0.54011
C         47.78943        40.27842         1.26850
C         46.61069        39.64388         0.98669
C         47.79077        41.70317         1.69528
C         46.52208        42.45602         1.48807
C         47.80530        44.71674         1.70218
C         46.53452        43.94830         1.38061
C         47.92228        45.94426         0.86669
C         46.82056        46.48901         0.50117
C         50.16386        29.03224        -1.59673
C         48.90335        29.48044        -1.11967
C         50.39699        31.54803        -0.58791
C         49.09496        30.77436        -0.28788
C         50.40281        33.00871        -0.28702
C         49.34569        33.62555         0.35886
C         50.47445        35.88657         0.38481
C         49.54363        34.97254         0.84239
C         50.25724        37.38422         0.40932
C         49.10430        38.05486         1.14779
C         50.31150        40.34416         0.95283
C         49.09724        39.54926         1.29334
C         50.44009        41.79983         1.45067
C         49.09271        42.43402         1.90285
C         50.28959        44.52020         1.60290
C         49.05528        44.04962         2.26115
C         51.17477        29.63217        -2.02567
C         52.40417        31.97988        -1.96301
C         51.57393        30.90510        -1.41556
C         52.53928        33.10408        -1.46582
C         51.67153        33.79480        -0.50073
C         52.57200        36.32137        -0.75682
C         51.71149        35.27660        -0.18323
C         52.50047        37.53203        -0.52008
C         51.33240        38.32879        -0.13284
C         52.41047        40.67666        -0.01701
C         51.37071        39.73648         0.32033
C         52.49273        41.90770         0.12175
C         51.21690        42.69451         0.34541
C         51.21536        44.07182         0.93241
O         35.91996        33.43389         3.08118
O         46.06870        30.76449         1.12697
O         45.92072        29.89597        -2.46119
O         38.30189        44.30595         0.54357
O         43.65593        37.45934         2.10651
O         43.37199        46.77540         1.08173
O         48.46978        41.78293         3.02728
O         32.26053        37.06372        -1.56343
O         45.85524        33.30800         1.92006
O         42.14653        42.74941        -1.22252
O         43.44899        30.64480         1.30848
O         50.20334        37.95231        -0.96596
O         40.01173        41.52088        -1.37921
O         32.78509        40.76742         0.35405
O         42.98013        27.95545        -3.11516
O         41.82545        35.84881        -0.77271
O         41.20303        28.51540         0.91096
O         38.18952        38.26477         2.36730
O         39.27620        33.60568        -0.45663
O         34.42244        43.17410         0.07301
O         49.30783        38.64450         2.46176
O         52.30714        34.29857         0.69446
O         46.00461        38.09152        -0.80921
O         33.12898        31.24167         3.12878
O         51.58465        30.88904         0.00420
O         33.66964        34.88153         2.63933
O         36.53740        39.28921        -1.56920
O         44.74886        35.51381        -1.02755
O         31.53389        33.57837         2.41189
O         38.68261        28.62724         1.76397
O         40.04993        40.72282         2.22242
O         35.34477        31.28582         0.16522
O         34.99272        37.21764         1.90331
O         48.62412        35.39337         1.80150
O         43.14416        42.57192         2.14929
O         34.43551        38.09012        -1.84595
O         46.66743        44.70970         2.60956
O         36.30440        28.94658         2.67836
O         38.04458        31.46095        -0.49638
O         40.62820        26.51385        -3.05847
O         31.47460        41.91046        -2.84077
H         30.65728        42.29919        -3.21498
O         48.18517        32.40835         2.02069
H         47.29281        32.13198         2.35101
O         38.88829        47.21564         0.42932
H         37.96013        47.52871         0.44725
O         37.48069        40.63614         1.74286
H         38.35310        40.79511         2.22162
O         39.40192        38.98886        -0.95083
H         39.57195        39.77377        -1.53018
O         42.64818        40.20858         2.77586
H         41.72467        40.54063         2.95964
O         40.53849        37.37673         2.88527
H         40.49642        38.29810         3.22605
O         50.46245        42.70151        -0.83306
H         50.90677        43.25566        -1.50706
O         46.06396        43.94832        -0.92771
H         45.46144        44.18950        -1.66330
O         41.44792        48.61755         0.38003
H         41.49088        49.59132         0.45967
O         42.21605        46.26782        -2.31996
H         41.59751        46.72151        -2.93412
O         35.50932        43.81251        -3.33530
H         34.61680        43.95303        -3.71328
O         51.28447        41.78015         2.59922
H         50.74906        41.49307         3.36970
O         43.60808        30.86149        -2.32553
H         43.69778        30.36166        -3.16561
O         35.45488        41.29137        -2.74711
H         36.13195        40.62506        -3.00417
O         49.09035        44.18920         3.65418
H         48.16825        44.20844         3.99049
O         36.79331        27.86555        -1.34528
H         36.66600        27.13166        -1.98203
O         38.34849        32.68453         2.89309
H         37.61377        32.76190         3.54741
O         49.21643        30.21355         1.03763
H         49.13214        30.95255         1.69575
O         33.66266        28.78912         3.41552
H         34.00319        27.89160         3.60773
