         640
 CSIRO Nanostructure Databank - Neutral Graphene Oxide Data Set
C         23.65778        27.10885        -0.87044
C         23.60775        28.47260        -1.04187
C         23.44115        31.40218        -1.21785
C         23.33680        32.77842        -1.23054
C         23.05659        35.70701        -0.97787
C         22.99416        37.09775        -1.12363
C         22.86654        40.10534        -1.13582
C         22.88640        41.46692        -1.09864
C         22.88343        44.48748        -1.32780
C         22.93649        45.84185        -1.38543
C         25.89826        24.52059         0.63452
C         24.82616        25.09188        -0.01328
C         25.89063        27.30069         0.12783
C         24.78533        26.49276        -0.25892
C         25.83400        28.71805        -0.05409
C         24.67862        29.31638        -0.61758
C         25.68327        31.56434        -0.24629
C         24.59648        30.75503        -0.71428
C         25.56945        32.98780        -0.29110
C         24.39163        33.59635        -0.74615
C         25.47039        35.84655        -0.70307
C         24.27984        35.05813        -0.78348
C         25.41744        37.25018        -0.96485
C         24.15654        37.87775        -1.15462
C         25.39265        40.14109        -1.38603
C         24.08441        39.34102        -1.41702
C         25.34098        41.59017        -1.11834
C         24.10799        42.23130        -1.10199
C         25.34255        44.44826        -0.65808
C         24.03008        43.69523        -0.85153
C         25.36159        45.90182        -0.88837
C         24.15734        46.58517        -1.14249
C         25.37598        48.69409        -1.15582
C         24.18872        47.99550        -1.28431
C         28.02998        23.46687         2.38770
C         28.13148        24.73022         1.76093
C         27.02221        25.30300         1.03044
C         28.17019        27.49485         1.08032
C         27.03118        26.68798         0.73300
C         28.11454        28.90946         0.90537
C         26.93772        29.53659         0.37764
C         27.96135        31.77172         0.87842
C         26.85381        30.93939         0.27520
C         27.99776        33.18932         0.37340
C         26.65484        33.86867         0.29427
C         27.91138        35.93581        -0.42669
C         26.70339        35.22524        -0.35556
C         27.88703        37.33128        -0.75540
C         26.64845        38.00502        -0.96632
C         27.85253        40.14970        -1.07636
C         26.64401        39.41412        -1.11245
C         27.83169        41.60020        -1.03775
C         26.59934        42.30146        -0.95274
C         27.82487        44.43981        -0.73716
C         26.60879        43.71002        -0.78552
C         27.82493        45.87224        -0.66135
C         26.59582        46.60300        -0.81280
C         27.84769        48.73837        -0.70747
C         26.60221        48.02495        -0.91663
C         27.92805        50.15796        -0.76523
C         30.22361        23.77634         3.34721
C         29.03501        23.02997         3.23736
C         30.46688        24.94389         2.61724
C         29.32014        25.50785         1.94832
C         30.47353        27.71007         2.11911
C         29.32973        26.87779         1.60023
C         30.52568        29.06183         1.46760
C         29.31437        29.68484         1.09782
C         30.49051        31.80983         0.77085
C         29.29510        31.08099         0.83652
C         30.46661        33.23155         0.49816
C         29.17701        33.89125         0.27061
C         30.36442        36.02327        -0.21008
C         29.16697        35.29811        -0.11616
C         30.36325        37.37800        -0.63133
C         29.11056        38.05550        -0.84784
C         30.33363        40.18507        -1.41920
C         29.08212        39.45210        -1.04849
C         30.31392        41.64289        -1.05049
C         29.07144        42.31972        -0.95612
C         30.29912        44.45706        -0.76899
C         29.06649        43.73785        -0.79287
C         30.30012        45.87649        -0.53780
C         29.05199        46.57872        -0.49067
C         30.21162        48.72751         0.03317
C         29.01681        48.00433        -0.39947
C         30.28010        50.17685        -0.10560
C         29.11215        50.84403        -0.52057
C         33.21392        20.57206         3.02345
C         32.20794        21.28578         3.65552
C         33.11508        23.41971         2.79328
C         32.17257        22.68182         3.54258
C         33.01663        24.85403         2.53155
C         31.78689        25.58426         2.50640
C         32.98829        27.69826         2.02601
C         31.79407        26.97227         2.15541
C         32.97914        29.10580         1.68223
C         31.74167        29.77267         1.39274
C         32.96466        31.86989         0.91405
C         31.73993        31.14594         0.99597
C         32.92879        33.28394         0.59262
C         31.65793        33.94126         0.44063
C         32.89136        36.07916        -0.14086
C         31.62813        35.44648         0.38483
C         32.84210        37.38874        -0.56367
C         31.59836        38.10585        -0.74484
C         32.80084        40.24970        -1.11339
C         31.60259        39.48583        -1.02898
C         32.79376        41.64621        -1.17931
C         31.52974        42.36126        -1.05866
C         32.75425        44.55379        -1.32883
C         31.52053        43.77029        -0.95925
C         32.77435        45.93982        -0.74180
C         31.55356        46.55734        -0.42301
C         32.80726        48.72110        -0.08455
C         31.57648        47.94001         0.05640
C         32.76230        50.14659         0.12733
C         31.52421        50.85002         0.16435
C         32.71869        52.92046         0.67184
C         31.54391        52.25164         0.42175
C         35.36857        19.12036         1.72919
C         35.39761        20.53209         1.83398
C         34.27050        21.25673         2.38054
C         35.43959        23.38271         1.93619
C         34.25380        22.68177         2.33758
C         35.44598        24.81176         2.03519
C         34.25032        25.53521         2.21796
C         35.44179        27.70510         2.01549
C         34.25284        26.99556         2.11217
C         35.44805        29.17936         1.93767
C         34.17875        29.85162         1.58859
C         35.45790        32.04963         1.29166
C         34.18335        31.21185         1.21674
C         35.39351        33.17086         0.25810
C         34.12905        33.98863         0.38541
C         35.37790        36.00079        -0.27043
C         34.14922        35.36351         0.00852
C         35.37348        37.36731        -0.90919
C         34.11628        38.18791        -0.55670
C         35.34431        40.26430        -1.17358
C         34.06722        39.48122        -1.36757
C         35.29205        41.68067        -1.21900
C         34.03839        42.39341        -1.20678
C         35.26866        44.53234        -1.05671
C         34.04394        43.79479        -1.14534
C         35.25922        45.95777        -0.85735
C         34.00995        46.64338        -0.64781
C         35.26041        48.84867        -0.55129
C         33.99759        48.04713        -0.36707
C         35.24188        50.18171         0.16020
C         33.99135        50.87181         0.27634
C         35.22118        52.94233         0.82810
C         33.97525        52.25223         0.60733
C         35.26356        54.33435         1.11039
C         37.67932        19.06774         0.95924
C         36.46843        18.41045         1.29609
C         37.72539        20.48816         0.99941
C         36.56809        21.23546         1.41801
C         37.77583        23.41693         1.07879
C         36.58188        22.66271         1.51219
C         37.92808        24.82424         1.42905
C         36.77811        25.52236         2.11341
C         37.96493        27.67446         1.40923
C         36.68111        26.96650         1.69033
C         38.03852        29.14275         1.64777
C         36.75687        29.92174         1.71184
C         37.92585        31.89140         0.70059
C         36.74517        31.26464         1.13183
C         37.89478        33.27694         0.24879
C         36.67612        33.96696         0.16993
C         37.86257        36.01048        -0.58074
C         36.63277        35.33305        -0.20754
C         37.87848        37.40704        -0.90127
C         36.63473        38.17275        -0.53648
C         37.78891        40.29832        -1.24001
C         36.56936        39.59126        -1.05865
C         37.73495        41.69593        -1.37651
C         36.51302        42.40882        -1.23322
C         37.75534        44.55204        -1.06317
C         36.50394        43.83523        -1.12716
C         37.74110        45.96867        -0.79572
C         36.50738        46.65686        -0.70115
C         37.70479        48.67428         0.01341
C         36.52244        48.04981        -0.35783
C         37.67668        50.00711         0.71979
C         36.43067        50.82137         0.47711
C         37.69532        52.90726         0.95680
C         36.44618        52.22033         0.78767
C         37.70431        54.30625         1.17069
C         36.46165        54.98973         1.27784
C         40.07886        16.18554         0.31599
C         38.87945        16.91116         0.49655
C         40.06267        19.04357         0.21168
C         38.84613        18.30217         0.56267
C         40.15020        20.47059         0.54507
C         38.99359        21.16303         0.79889
C         40.34212        23.33751         0.77641
C         39.03878        22.64116         0.74044
C         40.36536        24.75089         0.88464
C         39.15316        25.48865         1.19747
C         40.43469        27.60326         1.02093
C         39.22757        26.91319         1.29502
C         40.47092        29.03053         0.87705
C         39.28784        29.83785         1.21451
C         40.38515        31.86564         0.32041
C         39.19745        31.22630         0.73824
C         40.35842        33.23582        -0.07174
C         39.11319        33.93792        -0.13077
C         40.29744        35.89172        -1.21836
C         39.06822        35.27921        -0.59093
C         40.30342        37.40601        -1.24050
C         39.07083        38.10399        -1.19090
C         40.22514        40.24544        -1.60659
C         39.05801        39.56993        -1.34411
C         40.25288        41.71978        -1.74281
C         38.95541        42.47024        -1.62484
C         40.25233        44.64302        -1.44187
C         38.96049        43.89120        -1.27207
C         40.22755        45.98015        -0.73785
C         38.98626        46.64677        -0.56768
C         40.18068        48.67720         0.18886
C         38.95726        47.99442        -0.09023
C         40.17634        50.09036         0.49338
C         38.95859        50.79155         0.61203
C         40.18465        52.88634         0.97258
C         38.94468        52.18470         0.84092
C         40.18033        54.32488         1.14028
C         38.96221        55.02997         1.22342
C         40.16962        57.15463         1.22966
C         38.98900        56.45708         1.29710
C         42.55916        16.10964         0.17114
C         41.31379        16.81303         0.17740
C         42.65528        18.97151         0.09342
C         41.36082        18.26619        -0.00652
C         42.69345        20.37617         0.21944
C         41.49808        21.10447         0.79039
C         42.77638        23.25800         0.44520
C         41.52902        22.60009         0.60765
C         42.83359        24.68801         0.53091
C         41.61910        25.43799         0.79133
C         42.90510        27.58451         0.79112
C         41.63869        26.84917         0.85564
C         42.89068        29.00916         0.44183
C         41.65393        29.71945         0.51576
C         42.84734        31.81400         0.00304
C         41.63382        31.13687         0.29217
C         42.85239        33.23883        -0.17938
C         41.59353        33.94921        -0.28294
C         42.76817        36.10160        -0.63742
C         41.56020        35.29190        -0.66283
C         42.75189        37.43977        -1.25807
C         41.53664        38.09126        -1.45406
C         42.74052        40.32003        -1.56184
C         41.50714        39.52679        -1.96467
C         42.73043        41.67294        -1.32284
C         41.49457        42.45055        -1.37552
C         42.77791        44.56171        -1.02763
C         41.48002        43.79818        -1.14684
C         42.66889        45.88924        -0.31064
C         41.43203        46.61065        -0.33773
C         42.64811        48.66540         0.35102
C         41.40946        47.98058         0.10175
C         42.65683        50.06365         0.61008
C         41.41654        50.78411         0.67051
C         42.67697        52.87286         1.33640
C         41.40238        52.17819         0.92266
C         42.66715        54.35505         1.06546
C         41.42424        55.04424         1.11968
C         42.63988        57.17123         1.01793
C         41.41234        56.46807         1.11964
C         43.75221        16.77187         0.02336
C         45.09180        18.89820        -0.15265
C         43.84036        18.20875        -0.02028
C         45.12184        20.32492        -0.15249
C         43.92128        21.06625         0.09282
C         45.19593        23.18340        -0.07439
C         43.97255        22.50777         0.17501
C         45.24316        24.61432        -0.03585
C         44.07242        25.33733         0.32190
C         45.33000        27.50233        -0.06300
C         44.18722        26.78941         0.51603
C         45.29640        28.91128        -0.16125
C         44.08352        29.66220         0.08597
C         45.27540        31.75732        -0.46562
C         44.06971        31.08031        -0.12914
C         45.28741        33.17647        -0.56821
C         44.07523        33.90218        -0.40649
C         45.34765        36.02162        -0.95404
C         44.11326        35.36827        -0.47858
C         45.32951        37.43267        -1.25333
C         44.03779        38.09210        -1.54169
C         45.27116        40.32152        -1.32191
C         44.03059        39.61714        -1.66279
C         45.22132        41.64947        -0.93761
C         43.95529        42.36778        -0.93876
C         45.06003        44.20540         0.25648
C         43.92824        43.69563        -0.59585
C         45.05376        45.71941         0.45019
C         43.83521        46.51194         0.15017
C         45.13073        48.61385         0.47036
C         43.86799        47.92480         0.34769
C         45.14820        50.07333         0.54593
C         43.91059        50.77769         0.70554
C         45.14072        52.90257         0.77675
C         43.92921        52.17424         0.87929
C         45.14013        54.33958         0.82816
C         43.87043        55.06443         0.94671
C         43.83051        56.48724         0.90803
C         47.49710        18.85418        -0.53026
C         46.31254        18.18907        -0.32417
C         47.55157        20.27422        -0.56950
C         46.36040        21.01401        -0.35560
C         47.61641        23.13561        -0.60300
C         46.39808        22.45000        -0.35214
C         47.65308        24.57433        -0.63277
C         46.46600        25.30345        -0.33586
C         47.66737        27.39683        -0.84022
C         46.48888        26.73814        -0.41399
C         47.59677        28.83337        -1.09643
C         46.44474        29.60746        -0.64607
C         47.73057        31.71629        -0.87725
C         46.47616        31.01283        -0.71750
C         47.73447        33.15227        -0.88121
C         46.52542        33.86586        -0.81955
C         47.75275        35.95346        -1.58408
C         46.51467        35.28837        -1.04661
C         47.78487        37.44106        -1.34036
C         46.52755        38.14704        -1.36620
C         47.72047        40.30789        -1.37320
C         46.53454        39.60450        -1.37386
C         47.71696        41.83221        -1.34430
C         46.45031        42.38497        -0.72204
C         47.63967        44.37898         0.06048
C         46.41182        43.65145        -0.18492
C         47.63965        45.72827         0.34956
C         46.35729        46.45195         0.54981
C         47.58334        48.64952         0.86291
C         46.32933        47.91771         0.48483
C         47.63336        50.01298         0.16719
C         46.35825        50.77835         0.48288
C         47.59639        52.93327         0.46698
C         46.37478        52.19780         0.56622
C         47.55669        54.31938         0.50114
C         46.34749        55.01531         0.67360
C         49.98383        20.25157        -1.07030
C         48.79260        20.96759        -0.81832
C         50.05157        23.07801        -1.08757
C         48.81978        22.39393        -0.83877
C         50.08325        24.52845        -1.15163
C         48.87304        25.26176        -0.93700
C         50.13225        27.40080        -1.21075
C         48.88975        26.69351        -1.02991
C         50.19835        28.81984        -1.19210
C         48.95333        29.60474        -1.26008
C         50.23441        31.67316        -0.55759
C         48.94068        31.01106        -0.93740
C         50.22532        33.14609        -0.88566
C         49.00583        33.86137        -0.99036
C         50.24868        35.97879        -1.17179
C         49.02468        35.25498        -1.19056
C         50.26062        37.41435        -1.27730
C         48.99727        38.11447        -1.34857
C         50.30289        40.32848        -1.42709
C         48.99802        39.58477        -1.51100
C         50.28594        41.85366        -1.23692
C         48.96836        42.35673        -0.70623
C         50.17456        44.39293         0.11980
C         48.91546        43.56142         0.18625
C         50.14730        45.76405         0.39221
C         48.87397        46.49034         0.49680
C         50.09999        48.61297         1.04580
C         48.84866        47.85268         0.68295
C         50.06238        50.09359         0.72753
C         48.90966        50.75589         0.48583
C         49.96781        52.84377         1.26576
C         48.94607        52.26489         0.29727
C         51.17333        20.92078        -1.29824
C         52.54249        22.98151        -1.57864
C         51.22427        22.32307        -1.28322
C         52.53170        24.47731        -1.41941
C         51.30712        25.21194        -1.37092
C         52.58173        27.34341        -1.50134
C         51.36140        26.66431        -1.35274
C         52.66253        28.78142        -1.44121
C         51.42586        29.51876        -1.23140
C         52.64541        31.65622        -1.23963
C         51.45882        30.94748        -1.08609
C         52.68638        33.08208        -1.07198
C         51.44972        33.82648        -0.97979
C         52.70930        35.95656        -0.98421
C         51.46976        35.25373        -1.04284
C         52.69947        37.36553        -1.03225
C         51.49965        38.11463        -1.20554
C         52.72781        40.27188        -0.90467
C         51.55317        39.56944        -1.15335
C         52.70573        41.66864        -0.48369
C         51.48648        42.37047        -0.47555
C         52.63637        44.40120         0.28787
C         51.42471        43.71791        -0.02479
C         52.61579        45.81206         0.49112
C         51.37659        46.48302         0.47658
C         52.65575        48.69358         0.81454
C         51.34998        47.94185         0.53133
C         52.53197        50.05755         1.34572
C         51.37166        50.88343         0.81838
C         51.10275        52.18716         1.52886
C         54.84494        23.04664        -0.65895
C         53.69640        22.36246        -0.82551
C         54.96338        24.43471        -1.08386
C         53.76248        25.13330        -1.40540
C         55.10105        27.26499        -1.59885
C         53.81034        26.55172        -1.90092
C         55.13250        28.72204        -2.00705
C         53.87402        29.46988        -1.58436
C         55.15065        31.65945        -1.36789
C         53.86870        30.96868        -1.80785
C         55.15435        33.01632        -1.06611
C         53.91543        33.77410        -1.05809
C         55.18757        35.86172        -0.78464
C         53.95102        35.20131        -0.93183
C         55.14462        37.32198        -0.39321
C         53.99738        38.07109        -1.03087
C         55.32702        40.32958        -0.71060
C         54.02784        39.57568        -1.00036
C         55.16238        41.60422         0.07604
C         53.89357        42.29527         0.03407
C         55.02898        44.35357         0.85737
C         53.84813        43.66703         0.40748
C         55.03286        45.72769         1.00870
C         53.84175        46.50649         0.80611
C         54.94087        48.51321         1.79352
C         53.84657        47.88616         1.09270
C         54.74898        49.80321         2.32681
C         53.56803        50.55008         2.11198
C         57.40497        24.42482        -0.72009
C         56.19034        25.12405        -1.01838
C         57.49533        27.25749        -0.98191
C         56.23427        26.56551        -1.23719
C         57.57453        28.66613        -1.06695
C         56.43754        29.43907        -1.62257
C         57.61386        31.56393        -0.77382
C         56.42848        30.93131        -1.39020
C         57.61484        32.96968        -0.59134
C         56.39271        33.71653        -0.79434
C         57.69385        35.82154        -0.59600
C         56.39378        35.11851        -0.70164
C         57.71681        37.34383        -0.42262
C         56.44463        38.08810        -0.40439
C         57.64838        40.11296         0.28913
C         56.45598        39.44510        -0.20362
C         57.56534        41.48210         0.68464
C         56.30046        42.18924         0.60374
C         57.48743        44.26684         1.45001
C         56.18645        43.51055         1.32697
C         57.47638        45.64789         1.65362
C         56.31980        46.49121         1.18548
C         57.33803        48.36920         2.48028
C         56.17827        47.79996         1.92797
C         58.58638        25.08379        -0.53212
C         59.84628        27.19346        -0.30429
C         58.64444        26.51567        -0.60392
C         59.88763        28.57383        -0.30180
C         58.75223        29.34186        -0.65998
C         59.93410        31.46700        -0.06689
C         58.77469        30.79753        -0.52945
C         59.95488        32.83935         0.09153
C         58.81510        33.62680        -0.18606
C         60.02356        35.77797         0.19289
C         58.87726        35.07178        -0.15255
C         60.04001        37.18200         0.34994
C         58.90711        37.96581         0.16891
C         59.93852        40.01334         1.13662
C         58.83357        39.36465         0.53645
C         59.87975        41.35154         1.47118
C         58.70919        42.11639         1.25798
C         59.87011        44.22536         1.97850
C         58.69489        43.53355         1.58711
C         59.83703        45.57209         2.28885
C         58.64107        46.31594         2.12845
C         58.55195        47.68659         2.51349
O         30.81501        48.20247         1.26084
O         52.07717        48.57544        -0.55465
O         37.04938        27.29347         0.30079
O         38.95717        29.59163         2.67668
O         39.59787        42.22849        -2.96743
O         24.50326        44.05459         0.49170
O         44.10027        38.76552        -2.86305
O         54.21511        38.81038        -2.26109
O         38.16496        23.13351        -0.32597
O         56.83804        30.33632        -2.71828
O         48.11126        29.24017        -2.39783
O         31.18158        23.34324         4.28192
O         43.84240        27.23847         1.87315
O         45.61327        46.02133         1.78954
O         36.14618        29.85425         3.06660
O         57.95759        36.71083        -1.73570
O         24.76132        39.74057        -2.65567
O         49.76525        39.97549        -2.74968
O         43.49073        36.05974         0.65050
O         40.56530        18.74947        -1.14601
O         53.73370        26.39423        -3.36870
H         54.07291        27.23491        -3.76410
O         47.68686        42.30404        -2.73859
H         48.62739        42.42325        -3.02286
O         35.28371        32.48860        -1.03575
H         35.26099        33.17534        -1.73561
O         37.10078        25.58885         3.55062
H         37.06366        24.67875         3.91305
O         47.66036        35.81222        -3.05336
H         48.40620        36.31503        -3.44578
O         50.44110        42.43764        -2.59189
H         50.58705        41.68985        -3.21694
O         47.47639        48.93018         2.30677
H         47.00593        48.17363         2.72011
O         55.09306        28.71840        -3.48903
H         55.88527        29.23174        -3.78877
O         27.62053        31.86141         2.33118
H         28.44531        32.08709         2.81305
O         55.83206        40.78762        -2.00257
H         55.67162        40.05381        -2.64104
O         34.19280        38.64138         0.83478
H         33.85234        37.92313         1.41146
O         52.79623        22.73535        -3.00781
H         53.45631        23.39815        -3.30643
O         33.98498        39.15755        -2.79592
H         33.70607        39.96558        -3.27630
O         35.49708        32.62160         2.62334
H         35.68453        31.87635         3.24227
O         43.09784        44.96434        -2.41405
H         42.23296        45.16696        -2.85659
O         35.28145        49.20587        -1.98570
H         34.44454        49.67777        -2.18344
O         41.51814        39.45801        -3.42151
H         42.41776        39.13729        -3.67811
O         42.70702        52.75577         2.81485
H         41.92014        53.23156         3.15716
O         54.76025        37.30158         1.03678
H         55.39462        36.72548         1.51348
O         50.20402        48.53300         2.50724
H         49.31951        48.81267         2.85340
O         53.76059        31.16373        -3.26784
H         54.18531        30.38213        -3.69567
O         47.64967        49.77125        -1.26357
H         47.87053        50.62065        -1.70417
O         30.14399        27.98963         3.53760
H         30.10247        27.12308         3.99708
O         50.31986        31.58107         0.91651
H         51.12052        32.07670         1.19158
O         44.79880        43.61239         1.56959
H         45.22989        44.20685         2.22828
O         49.38042        52.52661        -1.06430
H         50.31035        52.18039        -1.12939
O         32.63620        44.76489        -2.79423
H         32.59768        43.87786        -3.21188
O         55.83759        43.15979         2.72224
H         56.56271        42.59681         3.06847
O         48.87478        43.05059         1.58396
H         48.85005        43.83025         2.17932
O         56.68741        46.89020        -0.19403
H         57.51798        47.40895        -0.13197
O         31.59808        35.87582         1.80560
H         30.77491        35.51576         2.20061
O         35.44330        37.05685        -2.32143
H         35.05450        37.80161        -2.84085
O         40.36420        44.93770        -2.89537
H         40.15999        44.08098        -3.35092
O         36.75296        38.30193         0.91001
H         35.91893        38.72698         1.23153
O         26.25008        34.13075         1.68980
H         26.45901        33.30425         2.19560
O         30.35356        40.17432        -2.91479
H         29.47940        40.50630        -3.21402
O         41.66983        20.92693         2.26227
H         42.53286        21.32885         2.50282
O         40.25969        35.48826        -2.64891
H         39.47321        35.91539        -3.05173
O         51.74732        51.23756        -0.55705
H         51.92255        50.37846        -1.01749
O         37.58791        49.64130         2.15200
H         37.60916        50.47508         2.66857
H         22.81375        26.48080        -1.19041
H         22.71455        28.91253        -1.50471
H         22.59904        30.80976        -1.59892
H         22.42387        33.24069        -1.62973
H         22.12138        35.13205        -1.01453
H         22.01278        37.56966        -1.26994
H         21.92846        39.57218        -0.92636
H         21.94463        42.00489        -0.91810
H         21.97514        43.96252        -1.65816
H         22.05307        46.40872        -1.71561
H         25.89316        23.43857         0.82460
H         23.97558        24.46993        -0.32777
H         25.35696        49.78860        -1.24536
H         23.25290        48.53585        -1.48690
H         27.11577        22.86779         2.28388
H         27.03973        50.74020        -1.04332
H         28.92198        22.10591         3.81862
H         29.12206        51.93648        -0.63975
H         33.21848        19.47787         3.10166
H         31.43693        20.77334         4.24486
H         32.67509        53.99027         0.91436
H         30.59427        52.80108         0.47608
H         34.45809        18.56583         1.99036
H         34.33256        54.91113         1.18567
H         36.40091        17.31671         1.23259
H         36.44136        56.06715         1.48521
H         40.04158        15.08769         0.37041
H         37.96241        16.33171         0.67102
H         40.16632        58.25381         1.25418
H         38.05028        57.02042         1.37393
H         42.54688        15.01271         0.25037
H         42.62997        58.27061         1.01536
H         44.67481        16.17792        -0.01764
H         44.76055        57.06251         0.81298
H         48.40934        18.26121        -0.67175
H         46.31855        17.09161        -0.31350
H         48.48451        54.89464         0.37679
H         46.38238        56.11238         0.68163
H         49.98415        19.15495        -1.09760
H         49.76039        53.80920         1.75174
H         52.08359        20.34543        -1.51393
H         51.84699        52.60675         2.22123
H         55.69292        22.56303        -0.15428
H         53.62504        21.31854        -0.48689
H         55.55141        50.27410         2.91026
H         53.51832        51.56550         2.52993
H         57.39085        23.32961        -0.64637
H         57.30405        49.38851         2.89124
H         59.50579        24.52811        -0.29921
H         60.73974        26.61243        -0.03537
H         60.82579        29.06746        -0.01993
H         60.85256        30.90786         0.15007
H         60.88738        33.31651         0.41989
H         60.94734        35.23647         0.43731
H         60.97487        37.63754         0.70326
H         60.86336        39.45732         1.33772
H         60.76322        41.81297         1.93030
H         60.82478        43.69077         2.06762
H         60.74534        46.08040         2.64288
H         59.44459        48.18352         2.91923
