         576
 CSIRO Nanostructure Databank - Neutral Graphene Oxide Data Set
C          5.90367        18.96578         0.28729
C          5.60590        20.13130         0.94668
C          4.63246        21.17650         0.69947
C          6.10106        23.19691         1.30450
C          4.85117        22.49411         1.01085
C          6.08697        24.60156         1.26384
C          8.43844        14.71036         0.23288
C          8.39347        16.09142         0.30304
C          7.20390        16.87491         0.20290
C          8.42397        18.96846         0.69420
C          7.16434        18.24669         0.47933
C          8.52549        20.37865         0.93970
C          7.48600        21.12655         1.48024
C          8.57749        23.28317         1.14547
C          7.38464        22.54838         1.38077
C          8.52387        24.66954         0.98028
C          7.27950        25.36807         1.13891
C          8.42308        27.58723         0.91371
C          7.26121        26.79402         1.07310
C          8.40757        28.98066         0.93743
C         10.59362        10.24411         0.57061
C         10.48771        11.59885         0.86776
C          9.50466        12.54007         0.43262
C         10.92482        14.66549         0.42598
C          9.64498        13.94024         0.45134
C         10.89757        16.06292         0.21339
C          9.66907        16.80166         0.67780
C         10.79735        18.96754        -0.01672
C          9.63072        18.27687         0.40512
C         10.89310        20.35341         0.10195
C          9.91172        20.98575         1.05497
C         10.70013        23.25065        -0.03909
C          9.94405        22.56761         1.15620
C         11.00762        24.75278         0.36607
C          9.64325        25.47915         0.35479
C         10.79473        27.61838         0.00327
C          9.77746        26.89866         0.90947
C         10.68992        29.10003        -0.09675
C          9.58585        29.76870         0.64822
C         10.83802        31.96361         0.52759
C          9.69242        31.08813         0.98865
C         11.07642        33.11235         1.46708
C         13.44213         6.04165         0.66363
C         13.32934         7.51091         0.85037
C         12.03178         8.15843         0.56897
C         13.68593        10.58310         0.92063
C         11.73392         9.44437         0.95625
C         13.59710        11.98745         0.59748
C         12.43384        12.72472         0.88471
C         13.34585        14.69507        -0.19662
C         12.21028        14.01565         0.35353
C         13.21806        16.06130        -0.54334
C         12.02349        16.75743        -0.27893
C         13.22732        18.94954        -0.56715
C         11.88956        18.20531        -0.74224
C         13.12707        20.42251        -0.91139
C         12.02135        21.08091        -0.42519
C         13.07982        23.34993        -1.10644
C         11.91004        22.54823        -0.61064
C         13.08846        24.83347        -1.02405
C         12.04969        25.48889        -0.46770
C         13.18959        27.69074        -1.04112
C         12.17114        26.96711        -0.16033
C         13.12789        29.18429        -1.04009
C         11.91674        29.88687        -0.49250
C         13.36097        31.69032         0.42540
C         12.09440        31.18709         0.19294
C         13.57695        32.81593         1.41233
C         12.31949        33.56241         1.80182
C         13.77018        35.36269         2.68302
C         12.51633        34.74699         2.58769
C         13.96018        36.53391         3.50949
C         15.90254         6.06710         0.54270
C         14.62767         5.37926         0.66172
C         15.80535         7.50721         0.18233
C         14.65852         8.30749         0.71969
C         15.86450        10.37939        -0.15332
C         14.67692         9.75775         0.41679
C         15.77095        11.79846        -0.67715
C         14.64389        12.61342        -0.11483
C         15.78750        14.63705        -0.86521
C         14.58203        13.97993        -0.41761
C         15.71301        16.04730        -1.27527
C         14.36958        16.73950        -1.17609
C         15.66498        18.97818        -1.36193
C         14.35770        18.22981        -1.26439
C         15.65952        20.48692        -1.28168
C         14.34067        21.19003        -1.26279
C         15.55394        23.36536        -1.09812
C         14.37677        22.66026        -1.07075
C         15.54026        24.77630        -1.57341
C         14.21368        25.52791        -1.76730
C         15.53911        27.80687        -1.93636
C         14.29660        27.02781        -1.47894
C         15.67402        29.04255        -0.98944
C         14.44440        29.96047        -1.13313
C         15.79009        31.78861        -0.10014
C         14.53653        31.11636        -0.15196
C         15.90630        33.06215         0.49372
C         14.64616        33.78404         0.91457
C         16.11261        35.55988         1.91872
C         14.87720        34.88601         1.91627
C         16.27849        36.74327         2.75518
C         15.15808        37.18287         3.54736
C         18.37644         6.15210         0.33061
C         17.12614         5.45701         0.61747
C         18.30301         7.39315        -0.55110
C         17.02224         8.20782        -0.34176
C         18.35971        10.42225        -0.29220
C         17.04120         9.68843        -0.31454
C         18.26502        11.86815        -0.72569
C         17.08304        12.54918        -0.71748
C         18.23534        14.76312        -1.11613
C         17.02498        13.98941        -0.94034
C         18.21727        16.16006        -1.06454
C         16.95019        16.85835        -1.16303
C         18.07872        18.97444        -0.59586
C         16.90114        18.23506        -1.09057
C         18.03451        20.46891        -0.39448
C         16.73416        21.25434        -0.51930
C         18.03740        23.37796        -0.96465
C         16.84692        22.69769        -0.96992
C         18.05285        24.86363        -0.98979
C         16.83766        25.51033        -1.59529
C         18.17331        27.69860        -1.71091
C         16.86195        26.98610        -1.86634
C         18.13739        29.20338        -1.74115
C         16.92588        29.88140        -1.21665
C         18.14533        32.03595        -0.95581
C         16.95186        31.17583        -0.76200
C         18.25145        33.28647        -0.21723
C         17.13923        33.80223         0.48211
C         18.38985        35.98119         0.91101
C         17.19431        35.08291         1.13683
C         18.60716        37.00376         2.01110
C         17.49702        37.40058         2.81572
C         20.88221         6.36391         0.49657
C         19.58536         5.60658         0.63457
C         20.77221         7.60298        -0.36500
C         19.57799         8.21513        -0.54717
C         20.80729        10.42149        -1.08603
C         19.51940         9.65733        -0.92775
C         20.81780        11.89300        -0.71047
C         19.51413        12.55773        -1.11579
C         20.80381        14.77190        -1.07352
C         19.51660        14.05236        -1.32155
C         20.79854        16.28461        -1.15840
C         19.44339        16.93207        -0.92675
C         20.57614        19.02322        -0.21094
C         19.38183        18.28019        -0.67065
C         20.56266        20.54156        -0.12950
C         19.32467        21.20716        -0.62039
C         20.62371        23.43500        -0.70610
C         19.34731        22.68196        -0.88952
C         20.64790        24.82060        -0.82923
C         19.37472        25.58993        -0.92521
C         20.65575        27.71044        -1.25844
C         19.42400        27.01460        -1.28627
C         20.68229        29.11207        -1.43903
C         19.46697        29.90989        -1.73796
C         20.73893        32.05837        -1.22395
C         19.45813        31.39124        -1.47551
C         20.77171        33.34845        -0.68832
C         19.48492        34.12890        -0.44831
C         20.91015        35.95209         0.63345
C         19.65166        35.12155         0.71288
C         20.98445        37.18117         1.35404
C         19.83287        37.62450         2.10705
C         23.32016         6.11366        -0.13860
C         22.11532         5.53388         0.26449
C         23.31595         7.49804        -0.70856
C         22.03128         8.25156        -0.80794
C         23.30610        10.40061        -0.89151
C         22.09519         9.71606        -0.94230
C         23.32858        11.88205        -1.06785
C         22.01385        12.61949        -1.33711
C         23.06405        14.73482        -0.08362
C         21.97470        14.09244        -0.92453
C         23.18281        16.24555        -0.22067
C         21.94820        16.97167        -0.43767
C         22.98938        19.08173         0.40502
C         21.86462        18.31724        -0.17346
C         23.00258        20.59327         0.32867
C         21.81666        21.31623        -0.16813
C         23.11885        23.40162        -0.46209
C         21.84706        22.68509        -0.44853
C         23.13027        24.81258        -0.72422
C         21.89858        25.54987        -0.86595
C         23.17093        27.65296        -1.05743
C         21.91713        26.96164        -1.05833
C         23.21974        29.08994        -1.14326
C         21.99791        29.77371        -1.73949
C         23.25546        32.01312        -1.32178
C         21.97709        31.30280        -1.56931
C         23.21336        33.49039        -1.06606
C         21.98144        34.09209        -0.54963
C         23.32575        36.10336         0.13254
C         22.05546        35.37988         0.05647
C         23.37040        37.41454         0.78023
C         22.18755        37.90521         1.38933
C         25.76676         6.09078        -0.73361
C         24.56428         5.47920        -0.06916
C         25.75435         7.57966        -0.45947
C         24.57268         8.28062        -0.57454
C         25.76083        10.44745        -0.32820
C         24.54341         9.71943        -0.61753
C         25.76525        11.87566        -0.21754
C         24.54879        12.62321        -0.62878
C         25.67293        14.75932         0.16831
C         24.41082        14.01165        -0.08043
C         25.62412        16.23907         0.26178
C         24.34910        16.91430         0.12940
C         25.55789        19.14616         0.42304
C         24.30380        18.36045         0.47478
C         25.59119        20.50601         0.21017
C         24.33736        21.30821         0.21839
C         25.59507        23.36356        -0.38349
C         24.33945        22.70676        -0.25787
C         25.59542        24.74908        -0.68620
C         24.38728        25.48899        -0.81080
C         25.63029        27.65146        -0.90003
C         24.40903        26.93361        -0.93939
C         25.65767        29.07405        -0.79985
C         24.41306        29.78169        -0.94579
C         25.70501        32.00668        -0.75065
C         24.39019        31.26910        -0.66208
C         25.74331        33.37244        -0.74148
C         24.51428        34.19555        -0.90372
C         25.75747        36.34238        -0.49016
C         24.49511        35.54633        -0.31878
C         25.81547        37.59286         0.36928
C         24.58883        38.10057         0.89628
C         28.19671         6.11176         0.00687
C         27.06346         5.43139        -0.34409
C         28.20284         7.56702         0.14106
C         27.06909         8.31276        -0.50270
C         28.12715        10.44067         0.35496
C         26.96891         9.75315        -0.09474
C         28.12230        11.87023         0.41936
C         26.93551        12.57775         0.06790
C         28.13024        14.75583         0.59507
C         27.00520        14.08164        -0.17104
C         28.04095        16.20299         0.73007
C         26.79730        16.91933         0.51847
C         28.05153        19.10372         0.57432
C         26.76999        18.39485         0.89503
C         28.06325        20.49583         0.22301
C         26.85510        21.21471         0.05448
C         28.08312        23.31908        -0.35043
C         26.85206        22.63106        -0.23998
C         28.12985        24.72972        -0.50177
C         26.88764        25.42247        -0.87493
C         28.16172        27.64294        -0.60954
C         26.91718        26.94320        -0.96946
C         28.13876        29.06243        -0.55124
C         26.89752        29.76333        -0.66432
C         28.20072        31.93212        -0.67645
C         26.91980        31.23157        -0.31896
C         28.23460        33.35235        -0.58080
C         26.98017        34.10533        -0.49538
C         28.27164        36.19437        -0.29832
C         26.98756        35.46978        -0.33989
C         28.29387        37.65831         0.09580
C         27.02171        38.24136         0.54756
C         30.57121         6.04782         0.61891
C         29.44647         5.39633         0.21447
C         30.47892         7.46992         1.04166
C         29.27183         8.24442         0.67598
C         30.45612        10.41258         1.11889
C         29.30974         9.70386         0.71805
C         30.44401        11.83219         1.19681
C         29.29833        12.58129         0.83877
C         30.32075        14.74380         1.77053
C         29.26045        14.03437         0.94119
C         30.40366        16.24418         1.47761
C         29.18948        16.95085         1.00614
C         30.49993        19.04079         0.49069
C         29.21630        18.36639         0.73241
C         30.52222        20.50244         0.29332
C         29.34580        21.16385         0.07184
C         30.61217        23.33635        -0.17302
C         29.37059        22.54754        -0.52407
C         30.54915        24.72970        -0.15551
C         29.33620        25.46076        -0.35435
C         30.54425        27.64903        -0.03616
C         29.35855        26.92188        -0.34134
C         30.60022        29.07410        -0.18644
C         29.38447        29.77506        -0.44494
C         30.66936        31.86896        -0.68166
C         29.42436        31.20056        -0.61705
C         30.67680        33.33370        -1.05725
C         29.45252        34.02590        -0.55477
C         30.77757        36.14815        -0.18880
C         29.50527        35.39355         0.04887
C         30.78636        37.54252         0.12661
C         29.60458        38.22144         0.44251
C         33.00289         6.07248         0.95143
C         31.85117         5.37776         0.82537
C         32.99881         7.56051         0.72896
C         31.74593         8.20458         1.31816
C         32.94380        10.40689         0.84440
C         31.74848         9.71086         1.54146
C         33.00606        11.79917         1.43082
C         31.69616        12.51809         1.63250
C         32.99620        14.70052         1.42129
C         31.70822        14.02216         1.77889
C         32.97023        16.15818         1.15292
C         31.71517        16.94072         1.38051
C         32.95513        19.11608         1.21861
C         31.76671        18.31790         0.77868
C         32.95766        20.60229         1.00888
C         31.87871        21.14215         0.06295
C         33.06965        23.32150         0.15888
C         31.85167        22.65189         0.07907
C         33.06211        24.76622        -0.28798
C         31.79855        25.44925         0.17389
C         33.08529        27.65556         0.25489
C         31.79397        26.94463         0.29532
C         33.00402        29.11845         0.62884
C         31.82705        29.79961        -0.04300
C         33.10572        31.94372        -0.31657
C         31.88863        31.19192        -0.36921
C         33.20760        33.28150        -1.03668
C         31.95702        34.06247        -0.76053
C         33.23961        36.16632        -0.47777
C         31.97337        35.43017        -0.46885
C         33.21728        37.58027        -0.17796
C         32.06577        38.22898         0.14323
C         34.26283         8.29723         1.06069
C         35.48118        10.42359         0.96513
C         34.27020         9.67732         1.01120
C         35.52473        11.84309         0.90349
C         34.28768        12.57094         1.31052
C         35.40723        14.76219         0.74159
C         34.18199        14.03978         1.20339
C         35.53584        16.19778         1.06507
C         34.25688        16.92810         1.09387
C         35.53063        19.12504         1.52682
C         34.23300        18.38385         1.43769
C         35.53758        20.58237         1.32262
C         34.28114        21.33137         1.11622
C         35.51686        23.37586         0.43547
C         34.32335        22.69690         0.52346
C         35.57691        24.75961        -0.19973
C         34.30680        25.52945         0.01774
C         35.58304        27.63279         0.15195
C         34.29836        26.92240         0.20968
C         35.61789        29.10378         0.26002
C         34.33725        29.85896         0.49490
C         35.67492        32.00767        -0.11505
C         34.33030        31.33616         0.20960
C         35.65991        33.40770        -0.59346
C         34.47592        34.06306        -0.76010
C         34.42343        35.50071        -0.70633
C         36.70556        12.53746         0.69552
C         37.95863        14.77314         0.58538
C         36.71072        13.99862         0.53045
C         37.96925        16.14703         0.72359
C         36.73632        16.86143         1.03796
C         38.11105        19.03458         1.20947
C         36.80829        18.30414         1.41754
C         38.12184        20.53820         1.24195
C         36.81257        21.30559         1.35263
C         38.04505        23.43614         0.42962
C         36.79042        22.79666         0.92623
C         38.03186        24.76010         0.09305
C         36.76661        25.50493         0.39636
C         38.00591        27.62468        -0.34066
C         36.76819        26.95672         0.02088
C         37.99479        29.00402        -0.52900
C         36.83547        29.79748        -0.23661
C         36.84229        31.16685        -0.37916
C         39.17000        16.91599         0.46769
C         40.35700        19.03057         0.07562
C         39.22864        18.28812         0.56846
C         40.42188        20.40943         0.08048
C         39.35367        21.23332         0.70119
C         40.39773        23.29558        -0.46425
C         39.31911        22.69728         0.35952
C         40.33857        24.63680        -0.78562
C         39.19645        25.44461        -0.43816
C         39.16807        26.82426        -0.61782
C         41.51813        21.10368        -0.54837
C         41.51140        22.45050        -0.80335
O         23.84929        34.17713        -2.21403
O         24.99645        14.07051         1.27545
O         35.83741        14.42197        -0.61162
O         19.46904        21.67025        -1.99371
O         15.95356         7.73463        -1.26564
O         17.93449        19.60253         0.76836
O         23.48195        18.58067         1.68891
O         28.35685        37.18917        -1.35063
O         20.38657        19.75146         1.07044
O         18.58515        32.15569        -2.36425
O         38.49647        19.76233         2.41928
O         10.21309        28.22157        -1.17028
O         12.08526        22.82537        -2.05790
O         19.46110        13.12545        -2.45669
O         11.46847        12.16292         1.71784
O         14.85847        18.62587        -2.54758
O         23.61356        21.20355         1.50199
O         17.70007        27.20076        -3.04122
O         19.96351        10.06352        -2.23904
O         24.30344        12.39898        -2.05626
O         36.25780        18.62069         2.72329
O         10.49843        22.81782         2.44564
O         31.72015        13.15093         2.94583
O         18.74214        29.64783        -2.99597
O         33.35028        18.70548         2.55889
O         18.47727        25.42176         0.29215
O          6.41875        20.43705         2.05941
O         33.24093        21.32249         2.21302
O         31.05866         7.55850         2.41999
O         12.70254        10.07508         1.77900
O         22.82253        31.81749        -2.69277
O         39.84641        22.22637         1.65895
O         27.02964        26.09950        -2.17889
O         14.82482        16.16808        -2.44405
O         36.82502        22.41135         2.32641
O         31.33935        18.37874        -0.59340
O         22.64790         7.58773        -1.99864
O         33.52359        16.57705        -0.14406
O         12.14616        29.80990        -1.94758
O         14.12981         7.93909         2.00916
O         27.35145        14.32818        -1.50939
O         35.08819        32.03779         1.25087
O         15.12969        20.99781        -2.52337
O         35.20493        29.53508         1.62215
O         33.85363        11.96481         2.58703
O         16.37212        24.81653        -2.79569
O         31.76264        26.03743         1.49132
O         31.05401        16.89490         2.66090
O         13.58909        18.87399         0.84122
H         12.84900        19.24576         1.37085
O         25.65180         5.91855        -2.18375
H         26.34933         6.48542        -2.58540
O         15.40275        11.61681        -2.08958
H         16.15733        11.18490        -2.54540
O         26.66089        18.40424         2.36243
H         25.71938        18.24836         2.59712
O         16.19166        21.39556         0.82875
H         16.58780        20.67861         1.38142
O         33.27774        32.95888        -2.46975
H         32.35343        32.98845        -2.82374
O         15.35197        28.22155        -3.28448
H         16.23775        28.25123        -3.71733
O         32.98821        24.71058        -1.76899
H         32.32617        24.02346        -2.00533
O         11.62515        24.82800         1.65169
H         11.01804        23.69239         2.41045
O         32.66379        10.53370        -0.56306
H         32.65602         9.61999        -0.94534
O         30.57753        33.33852        -2.55348
H         29.73417        32.88885        -2.78148
O         32.80671         7.76173        -0.73508
H         33.56158         7.33525        -1.19462
O         21.07675        16.54593        -2.58190
H         20.55040        15.91256        -3.11661
O         24.04262        31.35731         0.76915
H         24.87520        31.18644         1.27461
O         36.55728        25.46067         1.83361
H         37.34635        25.83186         2.27983
O         14.53153        30.58734        -2.42726
H         13.61340        30.63276        -2.78564
O         29.40474        35.21752         1.51691
H         30.14941        34.64557         1.80085
O         29.78564        14.65516         3.10958
H         30.34436        15.22130         3.68709
O         20.98111        11.98406         0.71727
H         20.25322        11.46952         1.14927
O         13.87357        25.43162        -3.16783
H         14.71335        25.49291        -3.67879
O         32.32507        20.76163        -1.27196
H         31.53869        20.73575        -1.85966
O         22.51305        14.58987         1.26272
H         23.28162        14.56562         1.88235
O         35.78021        24.61230        -1.63097
H         34.88616        24.53479        -2.04564
O         29.47462        22.29640        -1.98498
H         29.13241        23.09152        -2.44833
O          9.74974        16.72412         2.15011
H          9.02875        17.27906         2.51819
O         22.14416        29.48119        -3.16766
H         22.54531        30.28069        -3.58778
O          9.72852        23.18269        -1.11857
H         10.24900        23.14121        -1.95929
O         11.53415        18.18490        -2.14192
H         12.30869        17.88069        -2.66252
O         15.74404        28.49764         0.34529
H         15.64575        29.22864         0.99186
O         31.93030         9.92784         2.95093
H         31.39780         9.24756         3.42129
O         26.84051        31.24499         1.17698
H         27.65668        30.81330         1.51308
O         19.79108        34.29211         1.90134
H         19.94246        34.88577         2.66714
O         14.11264        32.20463         2.61783
H         13.41368        31.64638         3.01795
O         10.20524        26.91452         2.27611
H         10.82930        26.13945         2.38384
O         32.66965        29.13733         2.04984
H         33.52057        29.04752         2.54015
O         14.11240        34.41453        -0.28587
H         14.78009        35.04798        -0.62361
O         19.25975        34.84668        -1.70039
H         19.07262        34.15731        -2.38395
O         12.81111        27.07745         1.14813
H         12.60755        26.22005         1.62486
O         10.39501        32.55486        -0.74240
H         10.36913        31.83682        -1.41158
O         10.33983        20.42307         2.34127
H         10.50625        21.19579         2.94281
O         18.73395        10.45166         1.14432
H         17.98420        10.83528         1.64874
O         21.84451        12.56810        -2.76382
H         22.72714        12.72127        -3.16977
O         27.38292         8.30580        -1.96119
H         26.82289         8.99515        -2.38167
O         18.26179         6.87156        -1.90672
H         17.31344         6.85590        -2.18024
O         25.73354        36.78664        -1.88102
H         26.63818        37.13471        -2.08012
O          9.21778        25.70098        -1.01026
H          9.08868        24.81438        -1.42507
O         21.12466         6.94661         1.85001
H         21.18924         6.19966         2.48332
O         18.10370        36.76426        -0.27647
H         18.36033        36.22779        -1.06857
H          5.20773        18.57183        -0.46890
H          3.66397        20.90332         0.25204
H          4.00346        23.17549         0.82572
H          5.11856        25.12591         1.24480
H          7.50196        14.15142         0.07693
H          6.26382        16.36256        -0.05394
H          6.28428        27.30162         1.14007
H          7.47301        29.51600         1.17308
H          9.82791         9.77813        -0.06606
H          8.53028        12.14082         0.10694
H          8.86833        31.57746         1.53105
H         10.19119        33.68594         1.78480
H         12.50454         5.46529         0.63691
H         11.32825         7.60299        -0.06800
H         11.64883        35.20971         3.08284
H         13.11198        36.89524         4.10886
H         14.63675         4.27884         0.65321
H         15.28662        38.07316         4.18028
H         17.18457         4.40044         0.92411
H         17.62287        38.24557         3.51036
H         19.62294         4.64567         1.17586
H         19.96350        38.46497         2.80638
H         22.11915         4.49448         0.63031
H         22.22169        38.86355         1.92889
H         24.67703         4.55274         0.51486
H         24.60994        39.05187         1.45074
H         27.11588         4.33819        -0.46345
H         27.06197        39.16900         1.13958
H         29.47616         4.32130        -0.01876
H         29.65518        39.25322         0.82236
H         33.95997         5.55559         1.11749
H         31.85484         4.27836         0.88092
H         34.17422        38.12280        -0.18230
H         32.08031        39.30038         0.38980
H         35.20756         7.73850         1.15474
H         36.42930         9.86861         0.88283
H         36.59795        33.98039        -0.50785
H         35.37450        36.05451        -0.66938
H         37.65107        11.98837         0.56841
H         38.91054        14.23570         0.45615
H         38.90658        29.51645        -0.87076
H         37.73258        31.65671        -0.80290
H         40.03957        16.37660         0.06196
H         41.17680        18.46233        -0.39047
H         41.17761        25.10718        -1.32072
H         40.06720        27.33219        -0.99859
H         42.37538        20.49928        -0.88066
H         42.36803        22.90636        -1.32151
