         576
 CSIRO Nanostructure Databank - Neutral Graphene Oxide Data Set
C          5.80443        19.04947        -0.68730
C          5.67941        20.34130        -1.13843
C          4.52806        21.19837        -0.78599
C          5.84299        23.20164         0.03375
C          4.61485        22.44972        -0.27978
C          5.88696        24.57479        -0.21641
C          8.10292        14.67194         0.01276
C          8.20644        16.10892        -0.27807
C          7.05516        16.85755        -0.40718
C          8.17289        18.94624         0.30941
C          7.13713        18.33397        -0.67840
C          8.20154        20.42388         0.48684
C          7.08443        21.13328         0.88320
C          8.20956        23.27703         0.66177
C          7.00898        22.56746         0.56845
C          8.27304        24.64860         0.35165
C          7.08623        25.33418        -0.07007
C          8.37637        27.42252        -0.38272
C          7.14984        26.71704        -0.38591
C          8.46054        28.82089        -0.71143
C         10.73631        10.44955        -0.13802
C         10.65282        11.85255        -0.35925
C          9.37595        12.44739        -0.12884
C         10.88474        14.84694        -0.86526
C          9.02357        13.77201        -0.49438
C         10.76341        16.20277        -0.39229
C          9.49997        16.81055        -0.23545
C         10.73330        18.94787         0.48080
C          9.47015        18.18755         0.31815
C         10.73806        20.34475         0.67472
C          9.50538        21.18420         0.31859
C         10.70250        23.26898         1.17479
C          9.39441        22.47910         1.16350
C         10.74139        24.65649         0.71027
C          9.52837        25.34997         0.37748
C         10.86181        27.33849        -0.20210
C          9.55824        26.69799        -0.02122
C         10.93172        28.74184        -0.71490
C          9.67513        29.53086        -0.81379
C         11.00384        31.63361        -1.19193
C          9.76273        30.91848        -1.06066
C         11.10741        32.95416        -1.57131
C         13.25335         6.22714         0.46635
C         13.19970         7.64109         0.17308
C         11.99272         8.32501         0.09684
C         13.17166        10.45542        -0.32148
C         11.94384         9.73449        -0.14780
C         13.11613        11.87069        -0.47068
C         11.90568        12.57860        -0.57396
C         13.23977        14.74452        -0.48918
C         11.98443        14.03673        -0.61549
C         13.22877        16.18684        -0.27478
C         11.97882        16.86475        -0.03021
C         13.19499        18.93910         0.53712
C         11.97252        18.24775         0.37049
C         13.20935        20.32447         0.81633
C         11.96498        21.01288         0.91497
C         13.27199        23.16395         0.96545
C         12.00586        22.47078         1.15098
C         13.31208        24.60564         0.60396
C         11.99239        25.33625         0.67496
C         13.22416        27.48527         0.74075
C         12.04566        26.68321         0.36651
C         13.30007        28.90961         0.29098
C         12.24087        29.46630        -0.61013
C         13.47241        31.70254        -0.48363
C         12.27640        30.91785        -0.89601
C         13.56912        32.97605        -0.97218
C         12.45578        33.58907        -1.84101
C         13.67903        35.90352        -1.44702
C         12.44630        35.07327        -1.66299
C         13.96749        36.96317        -2.51970
C         15.70024         6.24004         0.32154
C         14.44126         5.56657         0.55178
C         15.68011         7.64892        -0.00457
C         14.44408         8.34252        -0.04019
C         15.65364        10.41123        -0.54866
C         14.41897         9.74526        -0.28849
C         15.59488        11.85093        -0.84959
C         14.42770        12.58864        -0.24600
C         15.69358        14.74714        -0.66811
C         14.44294        14.05686        -0.55006
C         15.65705        16.24617        -0.84225
C         14.43729        16.86463        -0.19582
C         15.65919        19.04126         0.08484
C         14.49884        18.18004         0.51840
C         15.69919        20.40548         0.64595
C         14.47169        21.04134         0.92576
C         15.72178        23.20005         1.16700
C         14.48743        22.47543         1.03751
C         15.71101        24.64063         1.33570
C         14.50412        25.32293         1.17771
C         15.78623        27.51202         1.24025
C         14.45320        26.78250         1.25557
C         15.83198        28.88113         0.64318
C         14.58225        29.65256         0.37686
C         15.81700        31.81435         0.52367
C         14.61623        30.99204         0.10523
C         16.07049        32.97055        -0.41387
C         14.87356        33.64592        -1.07100
C         16.17699        35.71336        -1.31623
C         14.96601        35.09347        -1.29933
C         16.23444        37.20671        -1.54861
C         15.16324        37.57303        -2.55935
C         18.15921         6.20860         0.12260
C         16.90595         5.56574         0.41687
C         18.14588         7.62057        -0.23259
C         16.91165         8.32757        -0.26470
C         18.12530        10.47813        -0.69369
C         16.88187         9.73853        -0.54377
C         18.12522        11.85892        -0.87277
C         16.87905        12.61001        -1.02631
C         18.15707        14.78502        -0.91097
C         16.89528        14.07526        -0.79848
C         18.16795        16.23282        -0.70350
C         16.97909        16.90526        -0.51872
C         18.18697        19.06267         0.03320
C         16.94712        18.36850        -0.31870
C         18.15010        20.36765         0.50753
C         16.93026        21.08681         0.74797
C         18.16027        23.14811         1.45508
C         16.96195        22.48370         1.15091
C         18.22658        24.59769         1.86758
C         16.96897        25.36572         1.49223
C         18.33052        27.44440         1.35465
C         17.04296        26.73164         1.30596
C         18.36821        28.90961         1.20487
C         17.13878        29.59202         0.72234
C         18.28988        31.74996         0.85751
C         17.12857        31.06514         0.70563
C         18.25802        33.23205         0.75852
C         17.23834        33.76673        -0.14783
C         18.68816        35.77187        -0.69499
C         17.40678        35.00163        -0.89711
C         18.71666        37.20900        -1.11901
C         17.62375        37.75374        -1.77173
C         20.61840         6.08413        -0.35567
C         19.34460         5.49824         0.17036
C         20.60463         7.59110        -0.36777
C         19.38044         8.29878        -0.46050
C         20.56876        10.40785        -0.91020
C         19.37954         9.74343        -0.66134
C         20.64760        11.87715        -0.83974
C         19.35819        12.65383        -0.80102
C         20.58417        14.86637        -1.56989
C         19.34243        14.11056        -1.10225
C         20.66354        16.28702        -0.90762
C         19.46237        16.88866        -0.54023
C         20.71478        18.98864         0.26830
C         19.42967        18.24782         0.06735
C         20.61040        20.50119         0.21793
C         19.40664        20.99194         0.99255
C         20.73374        23.11602         1.77461
C         19.41004        22.40188         1.53182
C         20.80029        24.60087         1.82128
C         19.51869        25.26602         1.33026
C         20.77921        27.52127         1.86403
C         19.50774        26.75857         1.51847
C         20.84150        28.81349         1.06285
C         19.54957        29.59059         1.15849
C         20.83375        31.78079         1.24750
C         19.62048        31.03719         0.71202
C         20.67719        33.23589         1.76048
C         19.46229        34.03344         1.12020
C         20.39324        36.34055         0.90810
C         19.58733        35.36015         0.41565
C         20.84586        37.47088         0.09537
C         19.94630        37.90325        -0.91730
C         23.10020         6.20173         0.11685
C         21.89340         5.50065         0.18890
C         23.08340         7.61934        -0.22833
C         21.84462         8.26290        -0.45680
C         23.10449        10.39426        -1.09052
C         21.82209         9.64507        -0.97400
C         23.11399        11.86217        -1.40252
C         21.84829        12.61139        -1.29210
C         23.11228        14.55580        -1.86106
C         21.83966        13.96698        -1.52360
C         23.11765        16.67797        -1.41138
C         21.90902        17.05058        -0.78636
C         23.16516        19.07006        -0.10472
C         21.97219        18.36444        -0.18810
C         23.22913        20.52195         0.15055
C         21.94313        21.22288         0.46922
C         23.33295        23.09688         1.53554
C         22.01152        22.39517         1.38841
C         23.30255        24.54507         1.94464
C         22.00927        25.28946         1.87932
C         23.27251        27.47015         1.71494
C         22.08135        26.74262         1.75282
C         23.28241        28.91623         1.50436
C         22.09838        29.61467         1.32900
C         23.29484        31.76148         1.59289
C         22.03167        31.07565         1.35267
C         23.24591        33.21036         1.78448
C         21.99798        33.97427         1.69241
C         23.22726        36.12619         1.42217
C         22.12693        35.36827         1.83494
C         23.16650        37.63917         1.30998
C         22.11056        38.03004         0.27666
C         25.58800         6.29665         0.20935
C         24.35928         5.58457         0.34572
C         25.54637         7.74311         0.03455
C         24.31268         8.35555        -0.19628
C         25.48893        10.64479        -0.11228
C         24.25133         9.82688        -0.33311
C         25.61520        12.00736        -0.69850
C         24.42551        12.62806        -1.32040
C         25.59606        14.90009        -1.47749
C         24.33902        14.09420        -1.44336
C         25.60310        16.36442        -1.16723
C         24.40365        17.10357        -1.00353
C         25.74621        18.93949         0.22686
C         24.42965        18.31580        -0.16876
C         25.76333        20.35051         0.83149
C         24.60254        21.19072         0.26075
C         25.76949        23.19719         1.10907
C         24.57961        22.54391         0.96487
C         25.93905        24.52048         1.86316
C         24.60333        25.30509         2.02942
C         25.91681        27.55215         2.16119
C         24.57135        26.80104         2.05039
C         25.89200        28.97568         1.64213
C         24.59377        29.63074         1.19230
C         25.75993        31.85135         1.44598
C         24.53074        31.11681         1.51247
C         25.77372        33.24031         1.23362
C         24.53360        33.98600         1.48258
C         25.60548        36.06331         0.45125
C         24.38123        35.36125         0.94996
C         25.59329        37.54800         0.47267
C         24.48070        38.24212         0.86613
C         28.11087         6.33068        -0.13208
C         26.81459         5.65141         0.22940
C         28.07788         7.84786         0.15384
C         26.77037         8.51411         0.16797
C         27.89101        10.72721         0.53694
C         26.72417         9.90363         0.17812
C         27.93167        12.18042         0.14701
C         26.76941        12.72651        -0.60405
C         28.08832        14.87357        -0.76994
C         26.86254        14.12078        -1.09704
C         28.07778        16.24695        -0.94100
C         26.84982        16.99882        -0.87636
C         28.18565        19.03298        -0.27549
C         26.95315        18.34311        -0.37327
C         28.21364        20.44791         0.06182
C         27.01235        21.15191         0.47581
C         28.07070        23.40503         0.11755
C         26.98234        22.51459         0.65473
C         28.24631        24.74759         0.83225
C         27.08677        25.39947         1.31092
C         28.36045        27.48785         1.55894
C         27.12646        26.78443         1.61059
C         28.37723        28.93644         2.07446
C         27.06967        29.65415         1.64876
C         28.32271        31.95278         1.62701
C         27.05354        31.14465         1.63268
C         28.29971        33.46994         1.41060
C         26.95171        34.00138         0.96301
C         28.07679        36.08145         0.27621
C         26.89376        35.35409         0.58516
C         27.99704        37.48234        -0.09947
C         26.81256        38.19313         0.06628
C         30.54207         5.98560         0.30158
C         29.26898         5.65018         0.60333
C         30.56171         8.16670         0.00925
C         29.21493         8.62464         0.27531
C         30.41466        10.79524         0.83174
C         29.13523         9.98182         0.95894
C         30.43287        12.12871         0.51094
C         29.24848        12.86125         0.07488
C         30.54376        14.93079        -0.42500
C         29.29443        14.18134        -0.36082
C         30.58023        16.20200        -0.91443
C         29.34170        16.98798        -1.24769
C         30.64021        19.01777        -0.56403
C         29.41286        18.38199        -0.65972
C         30.70283        20.41979        -0.00769
C         29.39125        21.16558        -0.12510
C         30.68812        23.36783        -0.09668
C         29.36046        22.63676        -0.18547
C         30.71021        24.70504         0.49797
C         29.50800        25.43214         0.81091
C         30.86246        27.53440         1.52216
C         29.54687        26.81331         1.22455
C         30.83723        29.00996         1.15271
C         29.65852        29.72959         1.67809
C         30.75307        31.89045         0.73997
C         29.64748        31.24138         1.48451
C         30.65380        33.31539         0.39637
C         29.43777        34.04399         0.60131
C         30.52364        36.17732        -0.10819
C         29.32619        35.39892         0.24638
C         30.37561        37.50346        -0.74189
C         29.15714        38.13452        -0.66190
C         32.85725         6.51411         1.01039
C         31.79283         5.67993         0.98972
C         32.99693         7.89660         0.34858
C         31.71189         8.71399         0.48325
C         32.95803        10.80992         1.05200
C         31.66744        10.03163         1.24059
C         32.97948        12.14935         0.82551
C         31.70684        12.89732         0.63897
C         33.08028        14.93337        -0.20582
C         31.77283        14.30975         0.13543
C         33.09412        16.17757        -0.77837
C         31.86476        16.89032        -1.26864
C         33.08613        19.03584        -0.95750
C         31.88472        18.35586        -0.87762
C         33.10431        20.48727        -0.81369
C         31.91755        21.18430        -0.46060
C         33.12936        23.28804        -0.53310
C         31.94112        22.57514        -0.29085
C         33.24695        24.63193         0.07778
C         32.04008        25.29616         0.70770
C         33.23047        27.53067         0.39503
C         32.10807        26.77268         1.04972
C         33.17278        29.01886         0.28044
C         31.93846        29.72597         0.73217
C         33.05663        31.76733        -0.29303
C         31.89168        31.15279         0.47153
C         33.10705        33.28422        -0.10084
C         31.76540        33.96303        -0.14552
C         32.88243        36.02478        -1.12347
C         31.81191        35.41983        -0.29703
C         32.69755        37.38164        -1.57162
C         31.53271        38.07818        -1.38207
C         34.17126         8.60158         0.95603
C         35.51891        10.73430         1.35294
C         34.18280        10.00185         1.28486
C         35.54880        12.21799         1.16325
C         34.23155        12.96565         0.90678
C         35.54354        14.85961        -0.03687
C         34.31272        14.26908         0.19340
C         35.63370        16.11194        -0.82899
C         34.35337        16.82389        -1.17813
C         35.61017        19.02701        -1.08381
C         34.33247        18.32148        -1.50424
C         35.60099        20.51790        -1.36311
C         34.27843        21.22137        -1.10335
C         35.56812        23.37776        -1.36389
C         34.28460        22.62625        -0.99588
C         35.50742        24.92772        -1.17432
C         34.51764        25.38435        -0.08846
C         35.57089        27.60101        -0.60458
C         34.60972        26.85630         0.32498
C         35.52880        29.07910        -0.67656
C         34.54898        29.73099         0.30433
C         35.55784        31.88709        -0.72005
C         34.47724        31.28740         0.18398
C         35.37010        33.26432        -1.12255
C         34.19137        33.94108        -0.92472
C         34.01029        35.28548        -1.40504
C         36.78160        12.84510         0.72062
C         38.00267        14.90375         0.22665
C         36.79903        14.19485         0.31583
C         37.95541        16.39724         0.15258
C         36.95105        16.87763        -0.90685
C         38.01622        19.12401        -0.45514
C         36.78941        18.39062        -0.78861
C         37.93706        20.50875        -0.28634
C         36.68241        21.22599        -0.56890
C         38.00862        23.41728        -0.47652
C         36.70804        22.72352        -0.59623
C         38.06629        24.80641        -0.62608
C         36.86372        25.55270        -0.84073
C         38.10490        27.66888        -0.50196
C         36.88235        26.92265        -0.73662
C         38.05507        29.06320        -0.50272
C         36.84160        29.75268        -1.10106
C         36.72458        31.25083        -1.02404
C         39.27695        17.05475        -0.14280
C         40.58104        19.07307        -0.70442
C         39.29819        18.39577        -0.39717
C         40.89796        20.26419        -0.12718
C         39.01321        21.30835         0.18823
C         40.46285        23.33538        -0.09747
C         39.16432        22.67908        -0.10049
C         40.49446        24.72136        -0.20817
C         39.30445        25.51120        -0.37434
C         39.30943        26.90993        -0.31900
C         41.92321        21.25812        -0.40035
C         41.72042        22.60050        -0.23836
O         22.62009         9.66104        -2.24872
O         26.46358        24.20561         3.12110
O         34.70472        31.83262         1.45658
O         20.98016        36.12624         2.16236
O         11.04192        27.65299        -1.68071
O         24.65996        35.45763        -0.50391
O         18.56152        34.89866        -1.85827
O         31.60651        14.03110         1.57492
O         20.12952        12.39560         0.44722
O         23.04613        15.80331        -2.49488
O         35.06980        25.50182        -2.37499
O         15.80113        32.80342        -1.84557
O         27.55836        11.77610         1.52252
O         34.83567        12.95360         2.22420
O         25.06425        18.02156         1.15803
O         20.10563        18.32374         1.40022
O         40.02025        20.67836         0.91008
O         19.36799        21.18876         2.40930
O         23.94362        12.04232        -2.59279
O         23.44435        23.49558         2.94179
O         18.32411        33.99993         2.05061
O         30.69186         6.95955        -0.73179
O         16.70344        28.95165        -0.54910
O         34.99210        28.27690        -1.76285
O         29.95239        23.22920        -1.40052
O         27.69329        31.62791         2.90270
O         12.70096        29.92529        -1.91779
O         32.44320        25.78286         2.04963
O         30.07720        30.65317         2.74436
O         35.05208        15.99411        -2.17448
O         32.81017        28.15439        -0.85694
O         24.44160        10.55047         0.93735
O          8.50897        18.19839         1.50281
O         16.02180        12.22091        -2.18194
O         34.93990        10.28236         2.57306
O         21.45602        22.27235         2.71855
O         16.04342        19.02046        -1.32368
O         36.24846        22.00802         0.59388
O         31.54602        36.15992         0.95134
O         14.99632        27.40250         2.46467
O         24.46191        26.01601         3.29367
O         22.53688        21.43330        -0.84950
O         26.50491        14.38876        -2.50616
O         12.77009        28.59755         1.62679
O          9.80660        14.30373        -1.54945
O         11.40385        23.00375         2.43750
O         34.38948        24.52004         1.05309
O         24.09637        33.78214         2.84799
O          6.04061        20.57098         1.53298
H          6.26044        19.64283         1.75456
O         30.89660        20.26759         1.45049
H         30.15334        19.73073         1.80056
O         14.81212        17.85512         1.92443
H         14.03923        17.38645         2.30498
O         29.29449        17.18211        -2.71971
H         28.79450        16.43025        -3.10627
O         25.68350        20.24847         2.25224
H         25.28948        19.37235         2.47152
O         35.09558        29.44561         1.60452
H         35.05323        30.29717         2.11759
O         20.37397        33.07729         3.16484
H         19.43510        33.35890         3.30076
O         30.93454        27.58011         2.97112
H         31.25659        26.70267         3.28020
O         27.52440        23.84638        -1.17193
H         28.29555        23.93747        -1.78328
O          9.72175        21.59500        -1.05714
H          9.70239        20.79684        -1.62557
O          6.60422        20.91888        -1.93715
H          7.30948        20.24671        -2.12370
O         18.33730        24.62824         3.31503
H         17.59637        24.11406         3.69872
O          9.07337        22.08109         2.51151
H          9.89179        22.20131         3.05151
O         37.03025        29.51273        -2.52954
H         36.36024        28.82346        -2.78127
O         37.54660        16.61564        -2.19200
H         36.80590        16.56747        -2.84058
O         15.45394        16.47238        -2.28388
H         15.53967        17.44685        -2.42031
O         26.16946        27.71420         3.57259
H         26.03185        26.83278         3.99395
O         12.84988        33.26893        -3.21476
H         12.98970        32.29870        -3.27076
O         20.64185         5.70116        -1.80363
H         21.38727         6.19043        -2.21607
O         33.39742        33.49789         1.30051
H         34.08192        34.19177         1.40762
O         19.84698        30.97492        -0.75503
H         19.00677        30.68797        -1.17721
O         20.36624        15.12419        -2.98579
H         21.18606        15.54489        -3.33262
O         33.28644         7.68356        -1.06496
H         32.50702         7.20547        -1.43367
O         28.40060        28.85243         3.50161
H         28.65825        29.74128         3.83750
O         20.65292        27.89778         3.25943
H         20.73007        27.08842         3.80787
O         35.20114        26.87780         1.62909
H         34.82421        26.11693         2.13069
O         28.27045         6.14342        -1.56443
H         29.18117         6.44800        -1.78660
O         19.50035        25.03980        -0.11546
H         20.03722        25.74141        -0.54363
O         28.96324         9.68593         2.37108
H         28.54151        10.47874         2.77359
O         34.23349        18.44978        -2.95274
H         33.46636        17.87949        -3.22231
O          7.79534        18.53394        -1.98629
H          7.31026        17.98914        -2.64256
O         15.83229        37.83718        -0.26329
H         15.88407        38.80922        -0.38538
O         24.67804        29.56566        -0.28173
H         23.82679        29.89141        -0.64578
O         35.82069        23.18515        -2.76050
H         35.51166        24.04021        -3.17985
O         13.42523        36.61379        -0.20711
H         14.21248        37.19136        -0.02762
O         20.19899        20.79788        -1.14682
H         21.01981        20.96785        -1.67037
O         31.61460         9.70845         2.65138
H         31.61323        10.54675         3.15890
O         13.55165        24.60309        -0.87344
H         14.35667        24.06664        -1.04402
O         20.93137        28.43271        -0.34812
H         20.76575        29.25816        -0.86765
O         37.43904        16.88481         1.42963
H         38.04756        16.59348         2.14036
O         31.96004        16.85558        -2.73981
H         31.06031        17.11392        -3.07521
O         14.66863        12.48608         1.20592
H         13.90839        12.90039         1.66610
O         35.96918        20.60993        -2.75875
H         35.33425        20.04939        -3.26284
O         22.82912        38.21526         2.59405
H         22.00455        37.77262         2.89780
O         28.48635        34.06488         2.73222
H         28.04984        33.45749         3.37581
O         32.89722        31.46745        -1.68352
H         32.80295        30.49677        -1.79803
O         15.45467        32.43354         1.78774
H         15.29120        31.72968         2.44995
O         25.02116        21.38312        -1.11762
H         24.30811        21.87535        -1.58090
H          5.02224        18.65900        -0.02066
H          3.52641        20.75441        -0.90352
H          3.67085        22.99275        -0.10376
H          4.99007        25.07840        -0.60769
H          7.30029        14.34003         0.68800
H          6.07173        16.36734        -0.36525
H          6.22877        27.23846        -0.68748
H          7.51822        29.36582        -0.87671
H          9.80260         9.89999         0.05677
H          8.63202        11.83807         0.40806
H          8.82941        31.48495        -1.20263
H         10.20060        33.52569        -1.82178
H         12.30720         5.69169         0.63375
H         11.04882         7.78038         0.25044
H         11.51983        35.52542        -1.27187
H         13.16830        37.24322        -3.22197
H         14.46280         4.49282         0.78952
H         15.36751        38.36526        -3.29671
H         16.91354         4.49715         0.67951
H         17.69178        38.79895        -2.11662
H         19.32948         4.43255         0.44574
H         20.14710        38.83551        -1.46483
H         21.91028         4.42545         0.42477
H         22.42588        38.76044        -0.48705
H         24.39431         4.50425         0.55224
H         24.52630        39.34253         0.87910
H         26.83952         4.55761         0.35397
H         26.80334        39.27859        -0.11391
H         29.05470         4.93090         1.40643
H         29.03589        39.14983        -1.06874
H         33.74029         6.17865         1.57900
H         31.84146         4.74334         1.56780
H         33.53087        37.86062        -2.10702
H         31.44803        39.10430        -1.76940
H         35.06715         8.01168         1.20081
H         36.43269        10.18353         1.02822
H         36.17982        33.75163        -1.68966
H         34.81601        35.73037        -2.00942
H         37.72602        12.28748         0.79904
H         38.95104        14.39148         0.45100
H         38.98111        29.64083        -0.35503
H         37.50833        31.81724        -1.55475
H         40.20796        16.46864        -0.11629
H         41.25446        18.59763        -1.43264
H         41.46679        25.23836        -0.19874
H         40.25314        27.44211        -0.12510
H         42.91585        20.91370        -0.72997
H         42.59558        23.24930        -0.41061
