         651
 CSIRO Nanostructure Databank - Neutral Graphene Oxide Data Set
C          5.82825        31.87248         0.95843
C          5.84713        33.23637         0.83985
C          8.32857        27.54190         1.02850
C          8.31912        28.95322         0.93775
C          7.07643        29.70503         0.98281
C          8.29466        31.84415         0.75363
C          7.03974        31.07903         0.94471
C          8.31205        33.26313         1.28148
C          7.07230        34.01162         0.85812
C          8.37034        36.11711         0.76072
C          7.12810        35.36109         0.64860
C          8.36582        37.48239         0.67829
C         10.71555        23.20762         1.04463
C         10.70346        24.61122         0.97663
C          9.53753        25.36946         1.07985
C         10.77501        27.49243         0.84156
C          9.53287        26.80195         0.97243
C         10.79268        28.92496         0.82079
C          9.55817        29.63433         0.84084
C         10.84587        31.82632         0.95312
C          9.58861        31.09474         0.69648
C         10.82449        33.21590         1.03923
C          9.60672        33.98719         0.99978
C         10.88486        36.10089         0.84917
C          9.62744        35.37559         0.92000
C         10.87767        37.55291         0.71658
C          9.58813        38.30510         0.98505
C         10.74898        40.42878         0.27237
C          9.58396        39.69481         0.39336
C         10.78423        41.81258        -0.08336
C         13.32061        19.07472         0.27108
C         12.81087        20.12707         1.00336
C         11.79379        21.07891         0.71450
C         13.19844        23.14689         1.30683
C         11.91234        22.44059         1.07585
C         13.23911        24.52845         1.03983
C         11.99401        25.25136         0.54379
C         13.20051        27.40267         0.58559
C         12.01014        26.74999         0.75089
C         13.23065        28.87384         0.25767
C         12.02003        29.64066         0.71579
C         13.31292        31.74171         0.89742
C         12.07838        31.06627         0.87477
C         13.38515        33.17643         1.22903
C         12.07995        33.96066         1.23996
C         13.35236        36.07450         0.71470
C         12.09243        35.40964         0.95108
C         13.34672        37.55469         0.62301
C         12.04739        38.25911         0.59801
C         13.30019        40.46672         0.03674
C         12.04402        39.74261         0.50816
C         13.22591        41.82207        -0.52284
C         11.96857        42.51562        -0.41355
C         13.10074        44.63134        -0.99394
C         11.94163        43.92215        -0.63789
C         13.14913        46.03865        -1.02034
C         16.01718        15.33420        -0.97078
C         15.95524        16.42009        -0.07566
C         14.79282        17.23535        -0.17389
C         15.73984        18.98568         1.23007
C         14.58463        18.41587         0.53598
C         15.77494        20.35607         1.62534
C         14.57765        21.12287         1.80523
C         15.74049        23.27858         1.72766
C         14.45966        22.48277         1.55144
C         15.73366        24.61814         1.06225
C         14.49252        25.21771         0.86065
C         15.73799        27.35637         0.25394
C         14.44196        26.61752         0.38563
C         15.71561        28.82770         0.43163
C         14.55552        29.52074         0.56430
C         15.88152        31.70959         0.70372
C         14.57343        30.97865         0.82344
C         15.90281        33.21139         0.64458
C         14.64473        33.95923         0.96002
C         15.73560        36.02256        -0.04361
C         14.53912        35.38511         0.57353
C         15.72160        37.47190        -0.39276
C         14.57762        38.26898         0.13964
C         15.66492        40.29244        -1.03838
C         14.43642        39.63383        -0.43281
C         15.64937        41.76375        -1.15092
C         14.39898        42.43320        -1.02979
C         15.64143        44.63420        -1.51605
C         14.30609        43.86385        -1.37570
C         15.60179        46.05469        -1.18718
C         14.38212        46.74538        -1.06223
C         15.58482        48.87690        -0.66271
C         14.42478        48.19439        -0.97975
C         15.68442        50.29015        -0.61595
C         18.99524        11.51584        -2.28387
C         18.53809        12.36616        -1.09740
C         17.57737        13.41918        -1.63435
C         18.37297        14.77461         0.74841
C         16.90083        14.22823        -0.77469
C         18.28196        16.14446         0.99238
C         17.04365        16.89303         0.78139
C         18.18211        18.85485         1.80873
C         16.95816        18.21592         1.25966
C         18.24384        20.36584         1.89438
C         17.00353        21.10312         1.63882
C         18.26481        23.18124         1.40466
C         17.00997        22.48481         1.50755
C         18.25726        24.61185         1.12271
C         17.00140        25.29722         0.88586
C         18.24032        27.39441         0.47064
C         17.01441        26.66185         0.53863
C         18.26111        28.78658         0.17896
C         16.96208        29.50433        -0.09399
C         18.23895        31.60964        -0.55952
C         17.17067        30.96193         0.37491
C         18.23073        33.13180        -0.50164
C         17.01528        33.89261        -0.07836
C         18.21463        36.04751        -0.36784
C         17.05671        35.37100         0.01956
C         18.18709        37.40849        -0.78893
C         16.98456        38.18535        -0.73558
C         18.07721        40.28491        -1.70370
C         16.94344        39.54872        -1.01381
C         18.16419        41.74794        -1.34042
C         16.89986        42.47724        -1.31915
C         18.17158        44.62026        -1.50658
C         16.90082        43.87608        -1.39754
C         18.17384        46.09025        -1.19335
C         16.86861        46.80060        -1.04547
C         18.07216        48.81799         0.05693
C         16.75113        48.01715        -0.15064
C         18.16261        50.06989        -0.84141
C         16.92862        50.94074        -0.62629
C         18.21552        53.06209        -0.43506
C         17.00213        52.33626        -0.51041
C         18.23299        54.43111        -0.17097
C         21.28684         7.15980        -3.01409
C         21.31462         8.46689        -2.47037
C         20.23633         9.37986        -2.67505
C         21.11871        10.99030        -1.04918
C         20.13248        10.58073        -1.96930
C         20.97384        12.17446        -0.26022
C         19.72482        12.93294        -0.28945
C         20.75805        14.59005         1.27205
C         19.60387        14.04963         0.52632
C         20.68088        16.00697         1.78711
C         19.48898        16.82793         1.44281
C         20.69938        18.89144         2.29646
C         19.48406        18.16442         1.73027
C         20.73721        20.36175         1.91864
C         19.53801        21.07308         1.79875
C         20.73665        23.24614         1.67548
C         19.47827        22.48463         1.55004
C         20.76259        24.64872         1.19292
C         19.47436        25.30947         0.99897
C         20.68680        27.43219         0.59460
C         19.47715        26.70901         0.68650
C         20.68944        28.81853         0.37772
C         19.46516        29.51349         0.14296
C         20.69312        31.66929        -0.10430
C         19.53099        30.94476        -0.14510
C         20.68258        33.12093        -0.22726
C         19.52529        33.83116        -0.40839
C         20.77300        35.95119        -0.63826
C         19.51887        35.31601        -0.10306
C         20.69899        37.28245        -1.28469
C         19.39509        38.02309        -1.37707
C         20.69575        40.25498        -1.56310
C         19.40514        39.51155        -1.68966
C         20.65191        41.66137        -1.41414
C         19.40942        42.37841        -1.35211
C         20.68097        44.57713        -0.95983
C         19.46472        43.86346        -1.43034
C         20.63446        45.92989        -0.58057
C         19.38992        46.70618        -0.58824
C         20.57721        48.68706         0.38566
C         19.33785        47.98609        -0.11063
C         20.64947        50.13766        -0.04591
C         19.48567        50.81389        -0.61222
C         20.71469        52.99959        -0.02070
C         19.50564        52.33931        -0.54330
C         20.70057        54.43816         0.03361
C         19.45109        55.16224        -0.03565
C         20.65140        57.30996         0.09841
C         19.44591        56.56133         0.11961
C         20.71425        58.68699         0.27074
C         23.51377         4.17244        -3.49457
C         22.35826         5.01665        -3.50480
C         23.66382         6.76979        -2.28240
C         22.36854         6.26315        -2.88762
C         23.42065         7.93705        -1.31477
C         22.39514         8.85321        -1.61773
C         23.10415        10.30249         0.33602
C         22.44277        10.26275        -1.04886
C         23.18809        11.71048         0.87136
C         22.03987        12.59385         0.57514
C         23.22848        14.51042         1.56786
C         22.06082        13.90616         1.15307
C         23.26103        15.93669         1.98719
C         21.96028        16.71388         2.13226
C         23.22012        18.84571         1.95722
C         22.00485        18.17742         2.00714
C         23.22447        20.30457         1.87143
C         22.02403        21.01108         1.86836
C         23.31968        23.22529         1.65968
C         22.02918        22.49847         1.90689
C         23.27296        24.65621         1.17415
C         21.95120        25.29872         0.97058
C         23.06988        27.29693        -0.17702
C         22.02555        26.79233         0.82744
C         23.01325        28.78641        -0.33004
C         21.93499        29.50788         0.16058
C         23.17737        31.69942        -0.35579
C         21.99560        31.01038         0.31236
C         23.17124        33.06516        -0.44825
C         21.97903        33.86677         0.05304
C         23.26429        36.01605        -0.50055
C         21.94672        35.28218        -0.50179
C         23.22502        37.40331        -1.08643
C         21.97065        38.07468        -1.44993
C         23.18460        40.23946        -1.37560
C         21.93281        39.54977        -1.52575
C         23.18909        41.66198        -1.21099
C         21.93986        42.45953        -1.54807
C         23.06878        44.46659        -0.47717
C         21.89659        43.84241        -0.91220
C         23.08489        45.86196        -0.17749
C         21.85694        46.59451        -0.22896
C         23.06400        48.69540         0.17663
C         21.85752        47.98148         0.04446
C         23.04573        50.10309         0.47482
C         21.83887        50.83882         0.25666
C         22.98387        53.07500         0.95491
C         21.86959        52.28496         0.27455
C         23.14280        54.44720         0.30509
C         21.93013        55.12509         0.03518
C         23.18935        57.32169        -0.31426
C         21.89386        56.57730        -0.23804
C         23.20334        58.74527         0.08250
C         21.95902        59.40645         0.30341
C         23.17106        61.46814         0.76028
C         21.96945        60.78369         0.62987
C         24.61378         4.47442        -2.75637
C         26.01615         6.24916        -1.66270
C         24.62492         5.63362        -1.78539
C         26.20633         7.23945        -0.73433
C         24.32877         8.28721        -0.29424
C         25.69027        10.16920         0.49692
C         24.45171         9.61341         0.24675
C         25.80342        11.47373         1.31032
C         24.47257        12.26656         1.41414
C         25.70130        14.49921         1.28819
C         24.51523        13.75450         1.82293
C         25.64567        15.99590         1.07844
C         24.48125        16.72252         1.72557
C         25.79637        18.83756         2.01930
C         24.47539        18.09796         1.83612
C         25.78084        20.29272         1.61456
C         24.54068        21.05843         2.00211
C         25.69463        23.08535         0.99655
C         24.53824        22.44576         1.41553
C         25.63970        24.46018         0.51251
C         24.46556        25.17914         0.47433
C         25.66836        27.18224        -0.46560
C         24.37331        26.48644        -0.25783
C         25.79086        28.37477        -1.11766
C         24.01108        29.53169        -1.02788
C         25.59751        31.45565        -1.11740
C         24.27948        30.89795        -0.87501
C         25.62568        32.93703        -1.31828
C         24.32244        33.74690        -1.07717
C         25.64051        35.83314        -1.23748
C         24.44766        35.20428        -0.97453
C         25.65155        37.30352        -1.38969
C         24.40258        38.07634        -1.25415
C         25.65190        40.19637        -1.05305
C         24.41524        39.51930        -1.31294
C         25.61504        41.59582        -0.76826
C         24.37074        42.30266        -0.85076
C         25.57101        44.36218         0.12636
C         24.30954        43.67915        -0.30650
C         25.59101        45.85102         0.44581
C         24.30699        46.56880         0.06145
C         25.53864        48.73727         0.02386
C         24.29232        47.95807         0.12619
C         25.53081        50.16505         0.47580
C         24.26117        50.71791         1.11803
C         25.60807        52.97821         0.60498
C         24.36863        52.35477         1.26420
C         25.61416        54.39206         0.36373
C         24.39389        55.09604         0.17716
C         25.75877        57.27287        -0.08424
C         24.45405        56.51540        -0.25125
C         25.77462        58.79168         0.01762
C         24.41702        59.43680         0.25035
C         24.38875        60.79935         0.58268
C         27.14566         8.29879        -0.63012
C         28.08117        10.38391        -0.01588
C         26.94675         9.55219         0.02072
C         28.14152        11.75094         0.37236
C         26.97885        12.35934         0.93094
C         28.08790        14.56405         1.22642
C         26.88755        13.78283         1.08058
C         28.17233        15.99126         1.11199
C         26.96321        16.71407         1.25623
C         28.23591        18.76700         1.44176
C         26.99649        18.09624         1.47075
C         28.26088        20.24965         1.74290
C         26.96011        20.96608         1.39359
C         28.17732        23.05419         0.76555
C         26.97634        22.38025         1.03884
C         28.19334        24.40739         0.29990
C         26.88415        25.06200        -0.10764
C         28.16657        27.23137        -0.38292
C         26.90730        26.58034         0.16853
C         28.13559        28.59929        -0.77049
C         26.91377        29.28101        -0.97958
C         28.08163        31.49377        -0.74799
C         26.80305        30.71479        -1.09295
C         28.13248        32.92992        -1.26124
C         26.87789        33.71176        -1.27127
C         28.15056        35.84571        -1.09568
C         26.90154        35.10332        -1.31191
C         28.14034        37.24077        -0.90861
C         26.94994        38.04277        -1.24703
C         28.04220        40.11339        -0.43924
C         26.87718        39.47373        -0.89919
C         28.01497        41.52356        -0.28968
C         26.83105        42.26304        -0.42587
C         28.03909        44.40617        -0.07746
C         26.86321        43.69491        -0.14853
C         28.06816        45.85789         0.01615
C         26.86229        46.53958        -0.00545
C         28.13772        48.71933        -0.00547
C         26.83020        47.99449        -0.17467
C         28.12870        50.10892         0.53984
C         26.84017        50.83262         0.78281
C         28.10028        52.98242         0.52653
C         26.83341        52.30437         0.65558
C         28.09762        54.38239         0.49480
C         26.87903        55.10789         0.38380
C         26.90884        56.50678         0.37225
C         29.34204        12.42937        -0.01910
C         30.65551        14.63188         0.11220
C         29.74938        13.65428         0.53171
C         30.67317        15.95919         0.67878
C         29.44427        16.64366         1.10153
C         30.71582        18.78162         1.42029
C         29.43968        18.05283         1.27184
C         30.70071        20.25102         1.26251
C         29.52244        20.92818         1.26094
C         30.63128        22.90772         0.26951
C         29.50790        22.44025         1.17738
C         30.62897        24.31534        -0.23213
C         29.37327        25.09905        -0.04496
C         30.58343        27.11171        -0.98809
C         29.34925        26.47808        -0.44171
C         30.65390        28.57971        -1.03645
C         29.37737        29.30026        -1.08879
C         30.66923        31.41979        -0.68015
C         29.36472        30.78497        -1.17039
C         30.69555        32.93381        -0.78762
C         29.44783        33.66274        -1.14255
C         30.49237        35.74236        -0.32196
C         29.39538        35.12265        -0.88447
C         30.40177        37.14871         0.07780
C         29.25048        37.94115        -0.35247
C         30.46361        40.00632         0.22335
C         29.24569        39.33576        -0.14948
C         30.46557        41.46673         0.41756
C         29.22898        42.24990         0.13797
C         30.52237        44.39568         0.30961
C         29.34317        43.68977        -0.32094
C         30.59317        45.82337         0.27592
C         29.36032        46.55435         0.08804
C         30.60752        48.69028         0.25104
C         29.37971        47.95022         0.16350
C         30.58810        50.12110         0.27534
C         29.39747        50.86513         0.39369
C         29.33688        52.26212         0.45298
C         31.85869        16.67902         0.58602
C         33.22137        18.80627         0.78130
C         32.00912        18.03455         1.09267
C         33.26438        20.17302         0.88794
C         32.03293        20.98592         1.26303
C         33.22145        22.92480         0.04146
C         31.94885        22.19912         0.35938
C         33.16934        24.37490        -0.26061
C         31.94032        24.97937        -0.44127
C         33.17174        27.12146        -1.01977
C         31.91760        26.35376        -0.93818
C         33.00659        28.41415        -1.51320
C         31.84033        29.23226        -1.32393
C         33.21369        31.50594        -0.90236
C         31.93648        30.73736        -1.24028
C         33.07562        32.81281        -0.08782
C         31.81526        33.58907        -0.39790
C         33.00435        35.78962         0.13020
C         31.71329        34.98492         0.16657
C         32.97919        37.14674         0.28426
C         31.71061        37.90272         0.38689
C         32.96059        40.12514         0.17031
C         31.68801        39.35911         0.29434
C         32.98133        41.59202         0.40939
C         31.74232        42.21066         0.50342
C         33.42486        44.63592         0.54832
C         31.56654        43.60811         0.78439
C         33.13935        45.91469         0.07784
C         31.85028        46.54963         0.25862
C         31.81321        47.96281         0.20643
C         34.48260        20.90672         0.71966
C         35.65274        23.06049         0.41172
C         34.49256        22.28809         0.45897
C         35.63056        24.44558         0.06404
C         34.41590        25.12840        -0.31754
C         35.68955        27.25743        -0.47544
C         34.44974        26.51160        -0.66206
C         35.82417        28.69018        -0.53239
C         34.79680        29.54938        -1.08333
C         35.61791        31.54890        -0.00477
C         34.49680        30.80075        -0.62691
C         35.63171        33.00619        -0.44621
C         34.31990        33.69235        -0.13844
C         35.47760        35.76307         0.48598
C         34.28238        35.06578         0.12567
C         35.48172        37.18474         0.85574
C         34.19446        37.92022         0.63881
C         35.51437        40.10039         0.52508
C         34.25283        39.36436         0.27689
C         35.47551        41.49833         0.42214
C         34.27607        42.27819         0.37862
C         34.42351        43.68246         0.21202
C         36.82842        25.16543         0.16708
C         38.06118        27.25643         0.34176
C         36.86361        26.56428        -0.01199
C         38.11103        28.64755         0.39016
C         36.94187        29.35292        -0.00683
C         38.26884        31.50621        -0.05481
C         36.91782        30.82612         0.15677
C         38.20262        33.00989         0.21975
C         36.89332        33.72209         0.06386
C         38.01019        35.81435         1.10435
C         36.70990        35.04102         0.73595
C         37.96721        37.25818         0.92445
C         36.76286        37.95236         0.82383
C         36.70658        39.36934         0.72652
C         39.25977        29.40679         0.86226
C         40.45718        31.52631         1.24837
C         39.33514        30.77054         0.74313
C         40.46927        32.88968         1.30440
C         39.32123        33.69233         0.93740
C         39.28270        35.04743         1.12407
O         27.56821        50.22931         1.89939
O         34.62588        37.59870         1.99807
O         24.70759        33.28441        -2.40968
O         14.83093        44.22629        -2.67429
O         29.14625        13.94457         1.81848
O         18.04599        19.53330         3.11616
O         18.94788        44.33099        -2.72604
O         12.94827        40.39921         1.45397
O         37.12662        35.21675         2.12550
O         29.30945        30.07991        -2.40350
O         25.36530        49.86264        -0.93117
O         19.29288        38.51964        -2.76053
O         20.38009        14.89439         2.67227
O         22.65887        16.19244         3.29997
O         14.59776        39.65059        -1.86388
O         27.56310        48.51401        -1.33877
O         15.71527        33.79399         1.97187
O         15.35315        36.49967        -1.42301
O         23.36895        26.48960        -1.33508
O         23.53486        24.33946         2.59336
O         17.23398        33.57371        -1.51153
O         25.30848        56.78090        -1.40909
O         12.75734        33.57381         2.49144
O         17.61813        46.89182        -2.29504
O         31.55056        18.26449         2.49340
O         22.43983        57.00816        -1.54051
O         37.90246        33.79177        -1.00870
O         36.12748        31.27111         1.32776
O         28.93582        33.19902        -2.44757
O         30.63441        31.14117         0.71544
O         14.34574        38.16072         1.56089
O         24.75908        28.81733        -1.95587
O         31.11273        26.44729        -2.18314
O         15.41201        31.27239         2.02039
O         32.55035        22.03829        -0.94486
O         24.75522        43.65044         1.12240
O          8.90968        31.62108        -0.53862
O         25.17516         7.35464         0.25790
O         30.28885        23.15602        -1.11288
O         21.38011        37.30141        -2.57817
O         16.29511        47.56028         1.09607
O         33.69449        39.66673        -1.04322
O         23.51841        11.61307         2.32543
O         34.07833        29.01839        -2.15343
O         17.19668        14.03850         0.60996
O         26.40267        37.73838        -2.57637
O         32.65543        31.48429        -2.24808
O         30.83538        37.39911         1.46559
O         29.57115        41.94639         1.51795
O         19.77907        51.64067        -1.80235
O         13.46218        20.40378         2.22378
O         32.54335        44.20333         1.57369
O         15.03796        26.84824        -0.95934
O         21.30151        23.06474         3.03810
O         24.67935        52.58670         2.60055
O         22.08159        33.98966         1.51849
H         21.25944        34.47420         1.80023
O         19.67963        35.39569         1.37493
H         18.83025        35.12146         1.78689
O         29.56523        43.62358        -1.76090
H         29.54786        44.53833        -2.11357
O         32.23436        21.46677         2.61525
H         32.13848        20.70103         3.22129
O         28.08088        31.57154         0.69778
H         29.03805        31.45420         1.00825
O         13.17437        28.92457        -1.22114
H         13.91655        28.35241        -1.54254
O         18.12273        31.30145        -1.96559
H         17.56627        32.00473        -2.37873
O         25.64498        45.96278         1.90088
H         25.13623        45.19824         2.25996
O         17.86792        30.92914         1.64948
H         17.18623        30.83032         2.35612
O         26.01846        18.85033         3.47688
H         25.37266        19.50002         3.85336
O         22.06164        42.74826        -2.98463
H         21.84393        41.93096        -3.48163
O         22.25819         9.54477         1.22003
H         22.43095         9.86183         2.13416
O         17.82219        11.48108        -0.20761
H         17.44209        12.04024         0.50854
O         18.14763        49.62036        -2.20471
H         18.53289        50.33759        -2.75635
O         28.33613        20.37119         3.20419
H         27.57017        19.84812         3.56790
O          9.55840        38.50457         2.44859
H         10.35576        39.02351         2.69147
O         20.57913        18.84306         3.75054
H         19.65839        19.13484         3.96727
O         22.40136        53.37382         2.25144
H         23.16297        53.22772         2.89220
O         26.08524        10.99410         2.65693
H         25.21822        10.79565         3.07743
O         25.37899        16.13073        -0.38080
H         25.41150        17.08652        -0.60215
O         22.54291        27.28116         2.10577
H         22.05655        26.83411         2.83053
O         12.01586        25.07766        -0.91708
H         12.79011        25.57196        -1.26474
O         24.69035        13.77003         3.27129
H         23.94919        13.24688         3.65020
O         19.44332        12.40476        -3.32504
H         19.69220        11.86228        -4.10099
O         24.13080        50.23758         2.45756
H         24.39719        51.02292         3.03674
O         16.65294        29.38958        -1.50580
H         17.44019        29.67369        -2.03105
O         24.15125         5.08063        -0.54716
H         24.43854         5.67478         0.18447
O         22.13593        31.21718         1.75008
H         22.15591        32.19479         1.91024
O         23.34371        11.00687        -1.93293
H         22.87031        11.17093        -2.77577
O         26.88849        26.75322         1.60390
H         26.95111        27.70957         1.80740
O         33.03418        32.39246         1.30479
H         32.40661        32.98716         1.77996
O         20.53459        48.68466         1.85047
H         19.61147        48.97359         2.08739
O         24.68805        21.24986         3.47161
H         24.02042        21.91473         3.75432
O         35.67766        32.97820        -1.89932
H         36.54161        33.35669        -2.18528
O         26.77030        24.84461        -1.53688
H         27.63164        25.05817        -1.95566
O         38.62169        31.31503        -1.44660
H         38.45250        32.16214        -1.91791
O         15.77107        23.59243         3.17783
H         15.78752        22.74096         3.66643
O         31.49179        34.75678         1.60648
H         31.30816        35.64487         2.00603
O         17.63440        40.35182        -3.09316
H         17.85889        39.48144        -3.50105
O         24.37979         7.39575        -3.39320
H         23.75798         8.00190        -3.84818
O         26.34576        59.31646        -1.18874
H         25.94905        58.81449        -1.93446
O         29.79475        22.94295         2.50897
H         29.29340        22.38673         3.14732
O         23.51358        36.26683         0.93692
H         23.25063        35.44792         1.42889
O          8.24144        33.11692         2.73547
H          8.25050        34.01403         3.13135
O         18.01508        49.30085         1.41558
H         17.29781        48.71175         1.82082
H          4.86302        31.34463         0.98690
H          4.89576        33.78283         0.74973
H          7.37408        27.00357         1.12839
H          6.13743        29.13859         1.08091
H          6.20842        35.92009         0.41471
H          7.41161        38.01204         0.53154
H          9.75610        22.66844         1.08295
H          8.58338        24.85727         1.27952
H          8.61372        40.18902         0.23087
H          9.83043        42.35985        -0.12124
H         12.76597        18.73158        -0.61521
H         10.89037        20.76878         0.16680
H         11.00810        44.47478        -0.45468
H         12.22304        46.60375        -0.83884
H         15.29684        15.30876        -1.80271
H         13.97989        16.87174        -0.82052
H         13.53026        48.75306        -1.30060
H         14.76622        50.89442        -0.52675
H         18.11300        10.92803        -2.66155
H         17.43819        13.51162        -2.71998
H         16.06065        52.89912        -0.40663
H         17.27867        54.97415        -0.09800
H         20.38465         6.83175        -3.55283
H         19.42145         9.08494        -3.35309
H         18.48540        57.09003         0.21307
H         19.78695        59.24845         0.46122
H         23.49804         3.26228        -4.11218
H         21.46300         4.69427        -4.05705
H         23.16914        62.53773         1.01145
H         21.01452        61.30479         0.78841
H         25.47617         3.79139        -2.74818
H         26.72343         6.13809        -2.49593
H         26.45549        59.08551         0.85980
H         25.33619        61.34638         0.68567
H         28.11528         8.16378        -1.13342
H         29.00016         9.95617        -0.44680
H         29.04939        54.93282         0.47605
H         27.84437        57.03416         0.61280
H         29.97837        11.95563        -0.77990
H         31.42982        14.37265        -0.62328
H         31.54871        50.65669         0.22902
H         30.26994        52.84318         0.39256
H         32.72648        16.21420         0.09514
H         34.11783        18.25262         0.46205
H         33.89971        46.46991        -0.49233
H         32.76493        48.51381         0.17284
H         35.43898        20.36507         0.78125
H         36.61815        22.60846         0.68516
H         36.42916        42.04604         0.47311
H         35.38386        44.04453        -0.18728
H         37.74082        24.64404         0.49241
H         38.93342        26.66273         0.65376
H         38.91656        37.79320         0.77296
H         37.64696        39.93048         0.83785
H         40.07934        28.85853         1.35279
H         41.32128        30.96371         1.63348
H         41.34138        33.41074         1.72574
H         40.17123        35.56113         1.52400
