         344
 CSIRO Nanostructure Databank - Neutral Graphene Oxide Data Set
C          1.27509         3.67923        -0.11569
C          0.06002         4.33068        -0.07649
C          1.16984         6.47275        -0.46948
C          0.00928         5.72771        -0.24068
C          1.08085         7.93921        -0.66946
C         -0.04623         8.68827        -0.10297
C          1.18367        10.81267        -0.26645
C         -0.01079        10.03906        -0.00217
C          1.15431        12.24332        -0.10840
C         -0.00678        12.96557         0.19014
C          1.20449        15.03674         0.75604
C          0.01335        14.31174         0.57940
C          1.23177        16.36028         1.29671
C          0.05362        17.11527         1.35742
C          1.28274        19.22261         1.58772
C          0.07318        18.49633         1.54997
C          1.20965        20.75424         1.70768
C         -0.04930        21.42395         1.20344
C          1.12880        23.47461         0.50680
C         -0.06576        22.69600         0.70683
C          1.12512        24.81321        -0.06956
C         -0.10265        25.53983        -0.28330
C          1.09542        27.56307        -0.98672
C         -0.09412        26.87884        -0.65006
C          1.14281        28.96185        -1.19295
C          3.70999         3.73287        -0.31740
C          2.48173         4.40898        -0.32555
C          3.66113         6.56805        -0.74272
C          2.43954         5.83239        -0.52994
C          3.66181         7.97115        -0.87651
C          2.38639         8.71824        -0.86863
C          3.65636        10.85679        -0.57942
C          2.39231        10.15470        -0.55266
C          3.67271        12.23900        -0.39755
C          2.41097        12.98004        -0.27130
C          3.74238        15.00854         0.64756
C          2.44149        14.44940         0.21808
C          3.76627        16.21047         1.42473
C          2.50220        16.98307         1.85790
C          3.72433        19.31109         1.67207
C          2.51104        18.53047         1.67240
C          3.67212        20.64890         0.95236
C          2.41588        21.45305         1.14601
C          3.61201        23.57509         0.63424
C          2.36400        22.78562         0.74417
C          3.60574        24.93124         0.00732
C          2.32029        25.46383        -0.43038
C          3.62507        27.52584        -1.15577
C          2.33106        26.73993        -1.23432
C          3.60471        28.95297        -1.41431
C          2.33131        29.63286        -1.41145
C          6.12010         3.68023        -0.51097
C          4.94323         4.42122        -0.45224
C          6.12580         6.53591        -0.93325
C          4.93945         5.86597        -0.67785
C          6.09493         7.93486        -1.54803
C          4.87944         8.72295        -1.03394
C          6.13287        10.89063        -1.00245
C          4.87201        10.10982        -0.89343
C          6.18208        12.26844        -0.47605
C          4.91482        13.08558        -0.57139
C          6.18148        14.82678         0.73071
C          4.92016        14.30712         0.33802
C          6.22769        15.97127         1.57289
C          5.00257        16.58567         1.94802
C          6.22975        19.49494         1.71557
C          4.97237        18.86336         2.07652
C          6.21199        20.74043         1.08236
C          4.93016        21.46077         1.13632
C          6.06918        23.37511        -0.08281
C          4.92775        22.88912         0.78093
C          6.08453        24.86596        -0.29341
C          4.88542        25.53162        -0.44708
C          6.10245        27.55564        -1.17880
C          4.84885        26.88714        -0.93974
C          6.08599        28.91982        -1.82065
C          4.79013        29.64641        -1.59625
C          8.61321         3.53914        -1.05507
C          7.41437         4.32761        -0.54509
C          8.66179         6.39098        -1.41077
C          7.40718         5.83890        -0.74927
C          8.71933         7.91381        -1.25363
C          7.43831         8.66957        -1.38078
C          8.68570        10.77116        -0.60449
C          7.43573        10.14287        -1.09141
C          8.66574        12.15243        -0.29783
C          7.39911        12.86679        -0.20459
C          8.63278        14.88319         0.55062
C          7.41552        14.20629         0.34690
C          8.64305        16.19963         1.13135
C          7.49841        16.59440         1.79534
C          8.67387        19.35622         1.31087
C          7.50319        18.87659         1.88128
C          8.64841        20.68591         0.77445
C          7.41242        21.40393         0.71623
C          8.57842        23.42614        -0.06402
C          7.39140        22.75178         0.25651
C          8.54159        24.80323        -0.50396
C          7.33945        25.50594        -0.59168
C          8.57347        27.61584        -1.10711
C          7.31455        26.90081        -0.99017
C          8.53589        29.06540        -1.25991
C          7.32537        29.70630        -1.50863
C         11.12033         3.58634        -0.69432
C          9.90916         4.29250        -0.87394
C         11.13058         6.39848        -0.72649
C          9.91534         5.68517        -0.93540
C         11.13373         7.81508        -0.52841
C          9.80420         8.51056        -0.36007
C         11.06524        10.67186        -0.05397
C          9.86975        10.02175        -0.42885
C         11.07795        12.05568         0.17182
C          9.88008        12.80290         0.06003
C         11.10832        14.89879         0.58375
C          9.88863        14.21287         0.36827
C         11.12188        16.34426         0.73752
C          9.80112        17.10443         0.72528
C         11.13463        19.19111         0.75627
C          9.94383        18.50774         1.40177
C         11.06453        20.55147         0.10516
C          9.82671        21.35787         0.36783
C         11.07679        23.42562        -0.22410
C          9.82032        22.71065         0.01062
C         11.06751        24.79628        -0.56475
C          9.79671        25.43575        -1.06016
C         11.02599        27.66283        -0.92795
C          9.78558        26.94489        -0.97135
C         11.00342        29.10627        -1.06159
C          9.76942        29.77472        -1.20455
C         13.60672         3.45817        -0.44566
C         12.33487         4.25526        -0.60329
C         13.58836         6.40248        -0.49562
C         12.35383         5.67682        -0.59006
C         13.56719         7.79838        -0.37786
C         12.32523         8.48492        -0.27071
C         13.58416        10.61968         0.29738
C         12.27503         9.85920         0.35637
C         13.57607        11.99840         0.56802
C         12.26926        12.68432         0.87197
C         13.56478        14.84701         0.65296
C         12.33246        14.17506         0.66970
C         13.55325        16.29996         0.26436
C         12.31017        17.02713         0.70400
C         13.57954        19.14697         0.39541
C         12.32999        18.48429         0.63820
C         13.57636        20.60345         0.01381
C         12.31939        21.33740         0.48845
C         13.51963        23.48701        -0.06075
C         12.30605        22.77012         0.00360
C         13.48395        24.88397        -0.25495
C         12.26796        25.54342        -0.52382
C         13.48101        27.72208        -0.70284
C         12.25199        26.99106        -0.72821
C         13.46642        29.15058        -0.92391
C         12.22747        29.81350        -1.07767
C         16.09278         3.59139        -0.69211
C         14.87307         4.27038        -0.59164
C         16.08066         6.40910        -0.47659
C         14.84695         5.68087        -0.52863
C         16.09223         7.82471        -0.32081
C         14.83118         8.60096        -0.56179
C         16.03593        10.63173         0.34572
C         14.80565         9.95785         0.08931
C         16.01627        12.01077         0.67563
C         14.79746        12.71370         0.68939
C         16.04973        14.88053         0.69803
C         14.79927        14.16467         0.74230
C         16.04888        16.33008         0.59717
C         14.83692        17.03275         0.53502
C         16.07234        19.16110         0.45083
C         14.81532        18.45599         0.47698
C         16.07862        20.63791         0.57710
C         14.78925        21.37519         0.48114
C         16.00434        23.48323         0.05281
C         14.80281        22.81896         0.15522
C         15.98509        24.90217        -0.47103
C         14.75043        25.65206         0.02151
C         15.93842        27.77244        -0.51717
C         14.72111        27.07423        -0.47303
C         15.92514        29.19848        -0.73803
C         14.69050        29.85672        -0.93010
C         18.59849         3.60211        -0.81214
C         17.31536         4.29690        -0.69112
C         18.60734         6.44260        -0.62572
C         17.30422         5.69237        -0.54303
C         18.53841         7.83234        -0.05692
C         17.31581         8.52054        -0.04644
C         18.52934        10.64296         0.42722
C         17.28578         9.92828         0.26808
C         18.52637        12.01523         0.70986
C         17.26789        12.71886         1.11988
C         18.51782        14.90890         0.75631
C         17.27392        14.19911         0.77885
C         18.52760        16.34307         0.63120
C         17.29228        17.04377         0.54206
C         18.54822        19.20133         0.07901
C         17.27262        18.47143         0.42600
C         18.53762        20.69560         0.33810
C         17.32676        21.39407         0.38022
C         18.49217        23.54768         0.14766
C         17.27542        22.80905         0.21678
C         18.47028        24.99081         0.00508
C         17.24861        25.67807        -0.19229
C         18.41304        27.83589        -0.27009
C         17.20086        27.08647        -0.31294
C         18.37512        29.26071        -0.46103
C         17.14599        29.91124        -0.70576
C         19.76306         4.22382        -0.54244
C         21.03792         6.41291        -0.24278
C         19.76181         5.63855        -0.01379
C         21.04068         7.74036        -0.05891
C         19.81011         8.45847         0.46214
C         20.95629        10.72946         0.07170
C         19.78239         9.95346         0.26071
C         20.97616        12.07561         0.33152
C         19.81668        12.71159         1.04342
C         20.94230        14.94934         1.00354
C         19.75508        14.21796         0.89830
C         20.95789        16.33940         0.90923
C         19.77245        17.07151         0.69248
C         20.95990        19.27485         0.65215
C         19.79449        18.50405         0.55650
C         20.96582        20.66616         0.49025
C         19.76663        21.41262         0.34835
C         20.92455        23.63422         0.34080
C         19.73785        22.86173         0.28973
C         20.90005        25.01627         0.25259
C         19.69179        25.73082         0.07616
C         20.83942        27.95461        -0.02813
C         19.66353        27.17468        -0.06827
C         20.79505        29.34416        -0.19421
C         19.58975        29.99596        -0.41503
O          8.39958         8.54237        -2.51648
O          6.85364        10.79288        -2.28840
O          5.05180        17.67893         2.83457
O          7.55354        17.70290         2.65165
O          2.33304        14.13505        -1.21017
O         15.30748        21.04779         1.80364
O          7.66666         5.26405         0.57203
O          5.08315        22.49359         2.17823
O          3.58310        24.76176         1.50073
O          1.49680         8.37968        -1.99859
O         15.87185        24.81075        -1.92182
H         16.67160        24.35730        -2.26075
O         11.00303        20.30621        -1.32595
H         11.92361        20.26191        -1.68374
O          5.88769         7.76269        -2.97391
H          5.98309         8.64806        -3.38882
O          9.52508        17.40507        -0.67060
H          9.59626        16.57548        -1.18815
O         19.80981         8.26187         1.92650
H         19.67000         7.28995         2.06715
O         18.60528        19.10308        -1.40685
H         19.48273        19.44889        -1.67906
O          4.88584        13.59028        -1.94668
H          3.98392        13.97394        -2.08184
O          8.40338         3.27163        -2.45169
H          8.43313         4.14126        -2.92061
O         13.62661        20.65749        -1.45136
H         14.27281        19.98719        -1.76022
O         20.03072        12.46991         2.50488
H         20.15371        11.50030         2.61235
O         13.45608        16.28788        -1.22112
H         14.21271        15.75848        -1.55386
O          1.23792        20.99467         3.16665
H          1.31477        21.96378         3.30107
O          5.71142        22.82838        -1.40825
H          6.47215        22.97728        -2.00964
O          8.54551         6.06926        -2.82197
H          8.22709         6.89573        -3.26983
O         12.33711        21.36735         1.93276
H         13.24481        21.58092         2.24142
O         17.25865        12.65978         2.59801
H         18.19448        12.78993         2.89520
O         12.05010         9.60246         1.79564
H         11.17944         9.14302         1.86690
O          9.37513         8.22579         1.02074
H          9.30854         7.25007         1.12521
O          3.69916        20.31608        -0.48216
H          2.89224        19.79631        -0.68434
O         12.02442        12.44373         2.30142
H         12.05698        11.46212         2.42794
O         18.93231         6.58287        -2.05085
H         18.20554         7.08978        -2.47058
O          6.12561        28.66342        -3.29361
H          5.31334        28.15630        -3.51203
O          2.41049        16.78370         3.30378
H          3.19678        17.22564         3.69871
O          2.25065        26.31710        -2.66327
H          1.36171        25.92086        -2.79168
O         10.27069        18.30710         2.79227
H          9.45463        17.99203         3.24377
O          9.76522        25.13421        -2.50882
H          9.04733        25.67479        -2.90333
O         19.51715         5.55765         1.42599
H         20.17336         4.93846         1.80856
O         13.61082         2.33368        -1.33647
H         13.52978         2.66811        -2.25289
O         14.87533        25.72651         1.47487
H         14.09133        26.20044         1.82286
O         14.84607         8.91241        -2.02466
H         14.75826         8.05826        -2.50005
H          1.33157         2.58988         0.02068
H         -0.87043         3.76823         0.08105
H         -0.96912         6.22597        -0.21807
H         -0.92810         8.14383         0.26237
H         -0.89342        10.55700         0.39574
H         -0.97875        12.45487         0.20317
H         -0.94292        14.75597         0.88615
H         -0.91413        16.64526         1.13468
H         -0.88715        19.02651         1.57485
H         -1.01561        20.92581         1.36807
H         -1.03821        23.13374         0.43657
H         -1.06148        25.07158        -0.02376
H         -1.03944        27.44292        -0.63247
H          0.20244        29.53229        -1.14211
H          3.72460         2.64282        -0.17207
H          2.32356        30.72234        -1.55986
H          6.06811         2.58499        -0.59812
H          4.75901        30.73135        -1.78123
H          8.66989         2.54940        -0.53392
H          7.30499        30.79928        -1.63776
H         11.10693         2.48696        -0.67451
H          9.76339        30.86792        -1.33015
H         13.61158         3.02348         0.59504
H         12.21535        30.90556        -1.21158
H         16.09124         2.49398        -0.75921
H         14.68034        30.94781        -1.07177
H         18.58609         2.54633        -1.12323
H         17.13761        31.00036        -0.86248
H         20.71984         3.68327        -0.61589
H         21.94674         5.88358        -0.57032
H         21.97458         8.30385        -0.20111
H         21.87820        10.24586        -0.28348
H         21.90415        12.64405         0.18126
H         21.89107        14.42362         1.17809
H         21.92117        16.85909         0.99649
H         21.92025        18.78889         0.87638
H         21.93071        21.18658         0.55391
H         21.89609        23.13588         0.46035
H         21.85420        25.55738         0.30842
H         21.81536        27.47818         0.13454
H         21.72997        29.92077        -0.15635
H         19.56439        31.08584        -0.55703
