         311
 CSIRO Nanostructure Databank - Neutral Graphene Oxide Data Set
C         31.77619        56.67372         3.22268
C         32.03884        57.95759         3.73665
C         31.36960        58.45623         4.89373
C         32.60006        60.54562         4.74501
C         31.64758        59.72523         5.37461
C         32.86331        52.97602         0.11391
C         32.86156        54.36327         0.48400
C         32.20684        54.85346         1.62533
C         33.43693        57.01457         1.43612
C         32.45275        56.17845         2.08614
C         33.64980        58.32642         1.91575
C         32.99606        58.79659         3.07370
C         34.29337        60.91782         2.98749
C         33.28676        60.10723         3.59959
C         35.18116        48.60468        -0.59809
C         35.15385        50.04964        -0.37779
C         33.93549        50.85695        -0.44089
C         35.23723        52.92373        -0.79441
C         33.97539        52.26267        -0.41824
C         35.28354        54.27684        -1.19373
C         33.66535        55.30459        -0.23848
C         35.23972        57.24791        -0.38980
C         34.11227        56.51852         0.26186
C         35.45065        58.65318         0.12395
C         34.58430        59.22502         1.20898
C         36.03049        61.26805         1.27218
C         34.99997        60.49372         1.86389
C         37.57266        44.27587        -0.72781
C         37.53519        45.68182        -0.80210
C         36.36067        46.45241        -0.69316
C         37.65192        48.59340        -0.77246
C         36.37280        47.88244        -0.66511
C         37.69650        50.00794        -0.83499
C         36.49860        50.79343        -0.49347
C         37.64764        52.90393        -1.20832
C         36.46461        52.23191        -0.82337
C         37.68982        54.32078        -1.30337
C         36.46466        55.03424        -1.22045
C         37.74733        57.18672        -1.21204
C         36.43024        56.51668        -1.12506
C         37.88102        58.58088        -0.73181
C         36.79755        59.28321         0.01060
C         38.07498        61.42165        -0.09859
C         36.92723        60.73454         0.32280
C         40.06427        39.92786        -0.30573
C         39.97863        41.34258        -0.29288
C         38.80712        42.09632        -0.58642
C         40.00921        44.23391        -0.38409
C         38.79295        43.52850        -0.57364
C         40.09080        45.64138        -0.77986
C         38.80267        46.40638        -1.02447
C         40.09416        48.56102        -1.08135
C         38.85237        47.87783        -0.93865
C         40.09834        49.96600        -1.28197
C         38.88794        50.67575        -1.18192
C         40.16496        52.87814        -1.68609
C         38.85402        52.12021        -1.51470
C         40.15548        54.34445        -1.55515
C         38.94393        55.03013        -1.47854
C         40.19632        57.16890        -1.62795
C         38.93903        56.48343        -1.45364
C         40.20968        58.63512        -1.76079
C         38.98205        59.40702        -1.28713
C         40.32926        61.45765        -1.09541
C         39.13200        60.80499        -0.82924
C         42.69005        35.77749         0.17396
C         42.61531        37.19318         0.18976
C         41.39381        37.83724        -0.10426
C         42.41405        39.96731         0.51051
C         41.27757        39.24071        -0.00428
C         42.15912        41.33539         0.77677
C         41.13328        42.05815         0.18165
C         42.58272        44.22350        -0.19100
C         41.25938        43.49665        -0.13934
C         42.57725        45.72723        -0.15701
C         41.28346        46.45944        -0.41958
C         42.56257        48.53857        -0.79154
C         41.34473        47.86654        -0.85586
C         42.67283        49.94670        -1.23559
C         41.37313        50.67889        -1.53258
C         42.62260        52.84326        -1.38183
C         41.42254        52.15099        -1.48002
C         42.61488        54.28213        -1.53717
C         41.42624        55.01955        -1.60501
C         42.64970        57.18649        -1.88517
C         41.42630        56.47278        -1.70765
C         42.66873        58.61015        -1.93359
C         41.48562        59.35541        -1.80494
C         42.71245        61.47893        -1.61767
C         41.50292        60.78507        -1.58957
C         45.09410        32.98251         0.84595
C         43.90403        33.64774         0.56422
C         45.10024        35.78328         0.64243
C         43.88473        35.06504         0.46817
C         45.08910        37.24621         0.48252
C         43.79598        37.97766         0.48353
C         44.98934        40.12973         1.03414
C         43.71761        39.36387         0.66021
C         45.19963        41.59465         0.73860
C         44.06648        42.47048         0.88647
C         45.10278        44.20170        -0.43264
C         43.90086        43.61676         0.17662
C         45.06711        45.70437        -0.63765
C         43.82326        46.46424        -0.37597
C         45.03617        48.61721        -0.33095
C         43.78833        47.83905        -0.53084
C         45.08262        50.07509        -0.58665
C         43.89328        50.74580        -0.94538
C         45.10181        52.88620        -0.95352
C         43.88543        52.15060        -1.13508
C         45.15040        54.31182        -1.25286
C         43.91391        54.94292        -1.76285
C         45.20504        57.15644        -1.80788
C         43.92437        56.44327        -2.00658
C         45.22503        58.58119        -2.17899
C         43.92271        59.31789        -2.26661
C         45.23009        61.51384        -1.82911
C         43.94338        60.86160        -2.08502
C         46.28181        33.69163         1.04220
C         47.53128        35.83042         1.18397
C         46.30748        35.10475         0.94473
C         47.58966        37.21248         1.15299
C         46.37326        37.96969         0.76724
C         47.59509        40.20442         1.18960
C         46.28652        39.39881         1.18448
C         47.60067        41.23093         0.03805
C         46.36343        42.11168         0.20181
C         47.59047        44.19713        -0.34553
C         46.40318        43.51708        -0.19541
C         47.64889        45.65474        -0.59041
C         46.36272        46.44040        -0.65824
C         47.61376        48.62259        -0.20988
C         46.32501        47.87071        -0.21717
C         47.59307        50.09580        -0.36980
C         46.30881        50.78160        -0.47846
C         47.49317        52.96258        -0.22207
C         46.28366        52.19559        -0.59481
C         47.51131        54.43181        -0.53989
C         46.31665        55.05882        -1.14720
C         47.60147        57.24134        -1.18977
C         46.36758        56.48675        -1.44525
C         47.62902        58.62128        -1.34230
C         46.50765        59.36232        -1.94373
C         47.64805        61.54504        -1.52224
C         46.44208        60.84233        -1.76137
C         48.79797        37.95996         1.31229
C         50.07065        40.05888         1.08761
C         48.84912        39.34589         1.15985
C         50.11617        41.41936         0.71384
C         48.90825        42.02616         0.07785
C         50.01161        44.31884         0.46606
C         48.88956        43.49840        -0.14082
C         50.08585        45.71995        -0.10362
C         48.92745        46.37693        -0.35751
C         50.12708        48.63353        -0.65073
C         48.89339        47.86740        -0.32569
C         50.08312        50.10492        -0.41974
C         48.80105        50.77399        -0.32847
C         50.05735        52.97201        -0.24541
C         48.79406        52.22013         0.11448
C         50.01726        54.43061        -0.32939
C         48.81365        55.13231        -0.59299
C         50.05474        57.22007        -0.68490
C         48.82097        56.53198        -0.78797
C         50.07725        58.68606        -0.66578
C         48.79848        59.42288        -0.93751
C         50.09089        61.52056        -1.28973
C         48.87653        60.86837        -1.29346
C         51.29451        42.18318         0.78789
C         52.50139        44.33645         0.67265
C         51.33565        43.58880         0.54880
C         52.53989        45.77186         0.47492
C         51.43831        46.32999        -0.40871
C         52.64542        48.63462        -0.22157
C         51.41683        47.85610        -0.57942
C         52.58066        50.13671        -0.26503
C         51.27253        50.83091        -0.39431
C         52.56324        53.03324        -0.36572
C         51.25043        52.28078        -0.33418
C         52.46054        54.42580         0.26607
C         51.22905        55.14483        -0.22536
C         52.53202        57.25728        -0.37363
C         51.26602        56.53355        -0.43666
C         52.53242        58.69208        -0.58468
C         51.36943        59.37562        -0.81106
C         52.51901        61.53868        -0.57844
C         51.41706        60.80907        -1.30140
C         53.59397        46.54246         0.87811
C         54.81525        48.77760         1.01289
C         53.51645        48.04823         0.88134
C         54.85249        50.17012         0.86564
C         53.69608        50.89317         0.36078
C         54.89491        53.00936         0.59287
C         53.72026        52.26890         0.24406
C         54.94921        54.41081         0.37324
C         53.74226        55.06626        -0.25606
C         54.96221        57.30016        -0.01343
C         53.73930        56.57554        -0.22473
C         54.99344        58.70173        -0.03586
C         53.85087        59.43316        -0.70534
C         54.78614        61.54780         0.32844
C         53.69464        60.88380        -0.28545
C         56.01319        50.91200         1.21364
C         57.21332        53.06685         1.40696
C         56.05504        52.31628         1.08116
C         57.26188        54.45762         1.20731
C         56.12032        55.11852         0.62879
C         57.39683        57.33773         0.82060
C         56.19711        56.55261         0.29462
C         57.23207        58.78411         1.02589
C         56.09043        59.44232         0.50791
C         57.01438        61.58030         1.33649
C         55.97276        60.87615         0.69611
C         58.38429        55.21696         1.66226
C         59.40348        57.37293         2.27328
C         58.42262        56.61591         1.60631
C         59.35105        58.79072         2.31619
C         58.23464        59.48971         1.73215
C         59.18105        61.61841         2.53324
C         58.14240        60.91581         1.86294
C         60.35084        59.53860         2.98136
C         60.26351        60.93155         3.07402
O         45.47437        39.67709         2.36840
O         45.97606        37.73592        -0.61681
O         37.83712        58.53970         0.76466
O         43.01158        42.00059         1.66316
O         39.19042        59.17948        -2.69849
O         34.07820        54.90857        -1.51594
O         42.19378        50.11862        -2.61181
O         53.19435        49.32611        -1.35920
O         45.58049        48.17757         0.99231
O         42.09681        43.65804        -1.44128
O         47.10308        46.17799        -1.87638
O         49.23721        59.20897         0.45270
O         44.91096        44.77717        -1.75982
O         46.14162        58.88556        -3.27707
O         53.70941        54.64945        -1.68494
O         48.39504        48.26190         1.00490
O         52.92344        53.37782        -1.75578
O         41.75813        46.24771         0.95039
O         50.83432        48.23561        -1.85542
O         43.81890        60.19145        -3.39938
O         35.97462        50.46387         0.81424
O         49.25627        42.60781        -1.24107
O         34.31504        59.48635        -0.22960
O         44.00373        55.49071        -3.12612
O         39.60641        45.89185        -2.13851
O         35.34272        57.19261        -1.83612
O         39.39456        52.39073        -2.84979
O         57.32058        56.90790        -0.57874
O         47.19800        53.94707         0.83899
O         51.79741        60.74629        -2.71906
H         52.71297        60.36534        -2.75943
O         48.84611        52.12366         1.57643
H         48.31814        52.88229         1.92246
O         47.65900        40.97695         2.40550
H         46.87754        40.72049         2.95378
O         54.19564        59.47562        -2.13660
H         54.42698        58.56345        -2.41616
O         49.58787        44.50378         1.85598
H         50.26938        45.03787         2.31601
O         51.75958        45.82054        -1.73693
H         51.77174        44.84085        -1.69478
O         52.45279        54.38541         1.69709
H         51.59154        54.02435         1.99433
O         52.73406        48.38036         2.10416
H         53.26467        48.10159         2.88072
O         47.51990        40.53110        -1.20991
H         47.91421        41.11390        -1.89740
H         31.02588        56.03839         3.71638
H         30.63050        57.81939         5.40044
H         32.81648        61.54283         5.15422
H         31.12444        60.09700         6.26686
H         32.06618        52.35409         0.55348
H         31.55214        54.19405         2.21365
H         34.53865        61.88815         3.44520
H         34.22264        48.07128        -0.68267
H         32.96805        50.34608        -0.32055
H         36.21163        62.28385         1.65538
H         36.62134        43.72372        -0.69759
H         35.39456        45.93897        -0.57631
H         38.20797        62.46794         0.21574
H         39.19011        39.33671        -0.61476
H         37.87886        41.56356        -0.83998
H         40.43408        62.51453        -0.80781
H         41.77285        35.20736        -0.03685
H         40.52569        37.23491        -0.40845
H         42.75435        62.50874        -1.23356
H         45.09989        31.88597         0.91937
H         42.97253        33.08387         0.41503
H         45.21332        62.58956        -1.59682
H         47.21143        33.15274         1.27404
H         48.43822        35.25480         1.42223
H         47.64225        62.64369        -1.57709
H         49.74194        37.40210         1.41756
H         51.01255        39.53806         1.32171
H         50.10935        62.59678        -1.52238
H         52.22481        41.68324         1.10105
H         53.43554        43.82738         0.95944
H         52.40866        62.60830        -0.34298
H         54.42172        46.07346         1.43549
H         55.70234        48.24605         1.38989
H         54.68701        62.61801         0.56570
H         56.89957        50.37723         1.58565
H         58.09042        52.54972         1.82305
H         56.92559        62.67006         1.45891
H         59.19438        54.68445         2.18326
H         60.21222        56.85233         2.80790
H         59.11751        62.71210         2.62335
H         61.20532        59.01140         3.42910
H         61.05731        61.48895         3.59089
