         276
 CSIRO Nanostructure Databank - Neutral Graphene Oxide Data Set
C        -10.71947         0.65055         1.04948
C         -9.44943         1.44987         0.87602
C         -8.44797         0.65566         0.02413
C         -7.61789         1.34668        -1.04977
C         -6.26948         0.60678        -1.28890
C         -4.95858         1.15834        -0.65404
C         -3.72956         0.63704        -1.38992
C         -2.43147         1.39417        -1.41579
C         -1.09789         0.64791        -1.39163
C          0.29846         1.42732        -1.30187
C          1.21460         0.74875        -0.24378
C          2.37877         1.50425         0.30094
C          3.53709         0.71170         0.97696
C          4.88787         1.49939         1.05327
C          6.20433         0.74856         0.94177
C          7.51993         1.51739         0.90652
C          8.82305         0.78049         0.52831
C          9.84364         1.50401        -0.36544
C         11.15378         0.77043        -0.11467
C         -9.71798         2.84697         0.35287
C         -8.70163         3.48327        -0.23547
C         -7.44466         2.84120        -0.73740
C         -6.24603         3.26911         0.11549
C         -4.90297         2.66442        -0.32687
C         -3.65972         3.48269        -0.53695
C         -2.41617         2.87422        -1.14814
C         -1.11748         3.62527        -1.10859
C          0.19140         2.91967        -0.95040
C          1.32835         3.60163        -0.61726
C          2.65610         2.86868        -0.33824
C          3.60795         3.72189         0.58923
C          4.93419         3.01093         0.97443
C          6.26502         3.83180         1.16342
C          7.65701         3.05526         1.06975
C          8.67926         3.69146         0.12143
C          9.80165         2.99959        -0.26489
C         -8.39899         4.67924        -1.08998
C         -7.41414         5.60466        -0.43435
C         -6.30528         4.87264         0.32943
C         -4.96011         5.62186         0.09747
C         -3.77198         5.00105        -0.63937
C         -2.46131         5.69136        -0.25926
C         -1.18380         5.08419        -0.75400
C          0.06768         5.85958        -0.58318
C          1.35316         5.09442        -0.64790
C          2.59292         5.84911        -0.33409
C          3.84557         5.07201        -0.05911
C          5.09114         5.85763         0.08181
C          6.31999         5.31164         0.74631
C          7.52563         5.90258         0.05594
C          8.63293         5.09791        -0.17036
C         -7.50737         6.95508        -0.38136
C         -6.29399         7.87214        -0.24903
C         -4.99863         7.11697        -0.00344
C         -3.73873         7.96430        -0.21807
C         -2.45922         7.16928        -0.06075
C         -1.20020         7.99894        -0.28275
C          0.02130         7.19016         0.16028
C          1.28277         8.00694         0.04835
C          2.50862         7.25080         0.19466
C          3.82944         8.04324         0.28512
C          5.06098         7.33646        -0.01440
C          6.25652         8.02648        -0.23017
C          7.46783         7.27354        -0.30979
C         -6.26084         9.12939         0.60816
C         -5.10466         9.73823         0.94846
C         -3.72684         9.08313         0.87163
C         -2.48173         9.94919         0.69193
C         -1.25851         9.37113         0.39041
C         -0.00177        10.05767         0.45411
C          1.25383         9.40311         0.26115
C          2.51322        10.13386         0.21307
C          3.74198         9.50300         0.12172
C          5.00119        10.16196        -0.16475
C          6.17535         9.47598        -0.32849
C        -10.64109        -0.67111         1.22419
C         -9.27314        -1.33082         1.24681
C         -8.38936        -0.70011         0.16536
C         -7.45300        -1.55453        -0.58046
C         -6.31148        -0.90840        -1.34917
C         -4.98875        -1.66299        -1.37869
C         -3.64921        -0.89523        -1.54051
C         -2.54187        -1.42027        -0.61890
C         -1.20085        -0.80202        -0.94462
C          0.01813        -1.51990        -0.42821
C          1.27880        -0.74638        -0.24213
C          2.51542        -1.42385         0.22221
C          3.64298        -0.70977         0.45100
C          4.94701        -1.41630         0.22915
C          6.18899        -0.65278         0.51054
C          7.37495        -1.31460        -0.05403
C          8.64315        -0.56495        -0.16103
C          9.92247        -1.40543        -0.29259
C         11.15379        -0.56906         0.01961
C         -9.38449        -2.81888         1.18092
C         -8.46480        -3.59867         0.48253
C         -7.43661        -2.90564        -0.30821
C         -6.42028        -3.75672        -1.01810
C         -5.01318        -3.10027        -0.97608
C         -4.03307        -3.49030         0.13932
C         -2.66382        -2.73229         0.11316
C         -1.43216        -3.47986         0.68828
C         -0.07857        -2.78514         0.38463
C          1.21627        -3.52184         0.58113
C          2.54188        -2.94022         0.04691
C          3.64641        -3.56037         0.92719
C          4.99793        -2.85823         0.76453
C          6.27914        -3.57244         0.46630
C          7.55697        -2.79803         0.22067
C          8.71413        -3.59761        -0.33146
C          9.66577        -2.74895         0.47985
C         -8.55550        -5.00802         0.53105
C         -7.75398        -5.87030        -0.41564
C         -6.38101        -5.20631        -0.56376
C         -5.19575        -5.78710         0.15665
C         -3.94079        -5.00085         0.44544
C         -2.63429        -5.71827         0.69337
C         -1.38636        -4.95981         0.19279
C         -0.11462        -5.71853         0.57791
C          1.19355        -5.01915         0.80457
C          2.49231        -5.74591         0.60248
C          3.67581        -5.05801         0.68229
C          4.89365        -5.69966         0.10584
C          6.14445        -4.92791        -0.17690
C          7.35965        -5.58495        -0.87979
C          8.67152        -4.93795        -0.48996
C         -7.63042        -7.36124        -0.15860
C         -6.48291        -7.95020         0.27611
C         -5.50997        -7.02971         0.95365
C         -3.49147        -7.98627        -0.05787
C         -2.58096        -7.25372         0.89918
C         -1.32221        -7.95666         0.45079
C         -0.11787        -7.16230         0.16077
C          1.18913        -7.87376         0.03312
C          2.48355        -7.16224         0.24481
C          3.64050        -7.86189        -0.00357
C          4.98455        -7.20486         0.21801
C          6.13402        -7.79511        -0.57807
C          7.27367        -7.09694        -0.84368
C         -6.25112        -9.39028         0.23651
C         -5.04328       -10.02532         0.20930
C         -3.71793        -9.42840         0.18957
C         -2.54965       -10.12365         0.37048
C         -1.28139        -9.38683         0.32802
C         -0.08451       -10.05467         0.12737
C          1.23277        -9.36063         0.33478
C          2.44012        -9.98918        -0.31933
C          3.60491        -9.27295        -0.39457
C          4.84676        -9.88339        -0.85016
C          6.02106        -9.20360        -0.92270
O         -6.71571         5.07210         1.64775
O         -3.92564         2.90738         0.75921
O          4.78954         5.12748        -1.16523
O         -3.39411        -5.14597         1.78693
O          7.03098         0.95243         2.16802
O          8.30436         3.21904         2.33972
O          6.32729         5.70656         2.17265
O          1.13472         1.37765         1.06318
O         -3.30872         1.27627        -2.61168
O          7.79373        -0.67219        -1.34223
O          5.85129        -3.30283         1.85039
O         -1.04033        -0.42560        -2.33954
O         -6.36444        -0.07216        -2.56224
O          0.68859        -2.68018         1.63565
O         -4.71228        -2.80428        -2.33649
O         -7.51755         3.76521        -1.91832
O          5.05737        -5.02145        -1.17989
O         -1.88833         3.49701        -2.36277
O          0.36951        -5.47292         1.92719
O         -0.61421         5.86131        -1.86313
O          4.80207         2.31998         2.25562
O         -4.79036         6.45132         1.27677
O          8.52082        -2.61554         1.43520
O          0.49033        -7.43171        -1.18108
O          0.99826        -1.45649        -1.51176
O         -2.82520        -1.44203         0.79506
O          3.17202         7.47315         1.47272
O         -2.38718         6.25826         1.07466
O          2.18447         5.68663        -1.71928
O         -5.41238        -6.00268        -1.28488
O         -5.25301        -7.14723         2.14441
O          0.99921         1.35788        -2.49788
O         -4.92115         0.48677         0.63041
H         -5.24595         1.11807         1.31699
O         -3.25178        -1.17162        -2.88579
H         -3.04646        -0.31616        -3.33588
O          1.48603        -9.42045         1.78655
H          1.42434       -10.35815         2.06504
O         -8.48009        -5.79924        -1.67398
H         -8.10399        -5.04867        -2.20465
O         -0.02285         6.87329         1.56804
H         -0.31529         7.66434         2.06798
O          7.25343        -5.29056        -2.30359
H          6.29496        -5.33285        -2.53362
O         10.09225        -1.79106        -1.67643
H          9.29088        -1.48133        -2.16294
O         -4.75988        -2.98652         1.28659
H         -4.14435        -2.99938         2.05382
O         -1.44993        -4.91396        -1.24637
H         -1.02880        -5.71758        -1.62378
O          9.48833         0.51785         1.78006
H          8.79085         0.30801         2.44380
O         -8.85806         1.60097         2.20545
H         -7.97556         2.04244         2.06906
O         -3.49655         8.53302         2.19227
H         -3.83579         7.60313         2.21382
O          9.45718         1.28233        -1.75538
H         10.23786         1.45303        -2.32204
O         -8.40970         1.26660        -2.24503
H         -8.08084         1.95662        -2.86241
O         -6.46051         2.67785         1.42101
H         -6.50125         3.49097         2.02855
O         -3.65758         8.59350        -1.50851
H         -4.57014         8.66656        -1.88719
O          2.86954         3.99302         1.79049
H          3.27085         3.47777         2.52718
O         -6.23279         8.38633        -1.63614
H         -6.97909         9.01096        -1.75479
O         -4.00994         5.28960        -2.03827
H         -3.27552         4.87784        -2.55958
O          5.32431        -7.42469         1.62535
H          5.25385        -8.38608         1.80378
O          3.25255        -3.33132         2.29095
H          4.03285        -3.50860         2.86084
O          3.31316         2.58996        -1.58216
H          2.60675         2.21085        -2.18752
O         -8.67091        -1.06588         2.54706
H         -8.69813        -0.07729         2.67692
O         -1.61991        -3.47204         2.09941
H         -0.72588        -3.44022         2.52058
O          6.14339         4.30278         2.57176
H          7.75776         2.75551         3.01257
O         -1.01404         8.30660        -1.67525
H         -1.89859         8.53762        -2.04745
O          3.14174         0.47337         2.34021
H          3.27921         1.29922         2.85455
O         -2.83278        -7.58872         2.25389
H         -3.30460        -6.83449         2.68114
O         -3.58377        -7.53890        -1.30503
H         -3.98870        -8.19746        -1.90489
O          4.99827        -1.67064        -1.22668
H          5.07114        -0.81402        -1.69946
O         -6.89091        -3.81327        -2.39122
H         -6.15763        -3.46013        -2.96373
O          2.77890        -3.35218        -1.29580
H          2.26975        -2.75514        -1.89413
H         12.09839        -1.10480         0.20376
H         12.08259         1.34722         0.01464
H         10.57232         3.54988        -0.83247
H          9.49754         5.52721        -0.70145
H          8.39390         7.77366        -0.63187
H          7.10065        10.03400        -0.53370
H          5.00148        11.25855        -0.25514
H          2.46828        11.23194         0.14855
H          0.00437        11.12355         0.73490
H         -2.50748        10.99211         1.05276
H         -5.16138        10.69052         1.50209
H         -7.21627         9.63785         0.82000
H         -8.39049         7.43578        -0.84117
H         -9.20283         5.17120        -1.68369
H        -10.68474         3.32955         0.55990
H        -11.68560         1.17742         1.05928
H        -11.53942        -1.28446         1.39139
H        -10.15707        -3.30833         1.79442
H         -9.38080        -5.45482         1.10701
H         -8.43584        -7.98434        -0.58027
H         -7.15187       -10.02232         0.17525
H         -5.05391       -11.12673         0.21106
H         -2.55259       -11.20923         0.54907
H         -0.08776       -11.15158         0.02912
H          2.42428       -11.05547        -0.59408
H          4.80983       -10.93998        -1.15480
H          6.91868        -9.70825        -1.31198
H          8.09454        -7.62593        -1.35681
H          9.59846        -5.52803        -0.54735
H         10.56032        -3.21848         0.94663
