         320
 CSIRO Nanostructure Databank - Neutral Graphene Oxide Data Set
C         30.29960        31.64686         0.99064
C         30.22826        32.89081         0.79149
C         30.32188        36.00577         0.20369
C         30.39787        37.27602        -0.11157
C         30.36263        40.43659        -0.85906
C         30.43257        41.63903        -1.14908
C         32.82681        28.99988         1.81525
C         31.71461        29.57598         1.71046
C         32.67500        31.54759         0.66742
C         31.42602        30.83186         1.14303
C         32.64780        33.06932         0.62519
C         31.37409        33.83056         1.12583
C         32.64765        36.03504         0.85761
C         31.36544        35.21051         0.54352
C         32.74244        37.33674        -0.01123
C         31.40584        38.16078        -0.16425
C         32.65899        40.35442        -0.19640
C         31.54531        39.48919        -0.86257
C         32.80304        41.81025        -0.58756
C         31.53014        42.59048        -1.01487
C         33.09023        44.02100        -2.23841
C         31.95863        43.62863        -1.95029
C         35.58008        27.35831         1.67674
C         35.43297        28.85713         1.77786
C         34.08945        29.31558         1.08190
C         35.23537        31.48818         0.26520
C         34.03261        30.96958         1.09707
C         35.13462        33.14558        -0.02843
C         33.92878        33.85149         0.61549
C         35.20945        35.96456         0.19754
C         33.93278        35.21722         0.64171
C         35.20913        37.44341         0.55011
C         33.92518        38.18584         0.44838
C         35.17528        40.48836         0.58637
C         33.87290        39.68451         0.36213
C         35.26720        41.70251        -0.34839
C         34.18800        42.26036        -0.95676
C         35.57621        44.21756        -1.80094
C         34.40602        43.32130        -2.07483
C         35.98343        45.37704        -2.36788
C         37.81049        27.35429         0.66330
C         36.56087        26.85634         1.07042
C         37.72541        28.78261         0.58103
C         36.63279        29.51257         1.04525
C         37.80544        31.65946         0.34502
C         36.56504        31.03437         0.93770
C         37.80675        33.14300         0.24314
C         36.50083        33.85726         0.21902
C         37.59233        35.93812         1.13342
C         36.49421        35.28701         0.65315
C         37.49052        37.44213         1.48878
C         36.55269        38.12413         0.43183
C         37.65773        40.30164         0.59852
C         36.47326        39.64525         0.52800
C         37.70464        41.80507         0.40753
C         36.66449        42.23041        -0.65408
C         38.03913        44.35687        -1.14093
C         36.64453        43.79843        -0.74969
C         38.16224        45.78956        -1.69135
C         36.91241        46.27505        -2.26098
C         40.10191        24.74169        -0.75537
C         39.11860        25.36598        -0.34126
C         40.30915        27.39948         0.08338
C         39.09225        26.57749         0.57103
C         40.24757        28.75260         0.06310
C         38.91172        29.48502        -0.08413
C         40.22309        31.61093         0.66967
C         38.95832        30.94884         0.29134
C         40.23036        33.07112         0.99652
C         39.07536        33.95180         0.54376
C         40.17280        35.89621         1.65915
C         38.82984        35.11467         1.54707
C         40.14025        37.40758         1.67643
C         38.84262        38.16809         1.59088
C         40.18111        40.20968         0.70815
C         38.84517        39.71712         1.36506
C         40.20813        41.70610         0.56698
C         39.10827        42.34783         0.09798
C         40.63227        44.32831        -0.72217
C         39.26256        43.62095        -0.67768
C         40.90465        45.01820        -2.06184
C         39.51716        46.35225        -2.08024
C         41.22127        47.51196        -3.38769
C         40.03135        47.26080        -3.08052
C         42.70046        24.63892        -1.30011
C         41.52552        25.12892        -0.45531
C         42.84884        27.38707        -0.32976
C         41.48162        26.72582        -0.62699
C         42.78824        28.90311        -0.40297
C         41.43776        29.60445        -0.35793
C         42.78635        31.64276         0.55517
C         41.50811        30.86342         0.50305
C         42.68450        33.12392         0.70129
C         41.53409        33.78162         0.99247
C         42.76216        36.00839         1.18492
C         41.51541        35.22743         1.35851
C         42.77047        37.39933         1.44082
C         41.42168        38.08747         1.17991
C         42.71263        40.35598         1.31611
C         41.37687        39.60675         1.48814
C         42.70559        41.69904         1.18920
C         41.46870        42.50197         0.81357
C         43.11367        44.12531        -0.33063
C         41.79536        43.35635        -0.43908
C         43.25409        45.44728        -1.11194
C         42.20745        45.61996        -2.20134
C         43.78836        47.12172        -3.27188
C         42.40135        46.56844        -3.41789
C         43.60534        25.50635        -1.51783
C         44.89725        27.76247        -1.91053
C         43.92614        26.82577        -1.27699
C         45.23064        28.98132        -0.97287
C         43.93629        29.62182        -0.50619
C         45.01173        31.88327        -0.69515
C         44.11547        30.99025         0.12609
C         44.69396        33.20034        -0.65762
C         43.99069        33.84376         0.51686
C         45.26528        36.10945         0.64593
C         43.89388        35.39901         0.37407
C         45.14246        37.65841         0.58100
C         43.94221        38.17356         1.35180
C         45.22361        40.38706         1.68650
C         43.94915        39.59878         1.88060
C         45.17583        41.83046         1.92689
C         43.88089        42.59600         1.51970
C         45.58740        44.06404         0.27408
C         44.12808        43.65114         0.43658
C         45.70502        45.38296        -0.56794
C         44.73109        45.49891        -1.69413
C         44.69720        46.71996        -2.54683
C         47.27013        27.92021        -2.35074
C         46.26361        27.22087        -2.25776
C         47.45236        29.40518        -2.41073
C         46.21390        29.97966        -1.63629
C         47.30943        32.24601        -2.00739
C         46.16954        31.33348        -1.42033
C         47.56444        33.75018        -1.53692
C         46.41041        34.55676        -1.09825
C         47.72248        36.24866         0.00551
C         46.42871        35.61673        -0.23509
C         47.70306        37.75064         0.30714
C         46.45978        38.31788         1.06512
C         47.80094        40.43469         1.48313
C         46.44828        39.86789         0.96093
C         47.77333        41.71997         2.35633
C         46.46564        42.58889         2.12401
C         47.67256        44.85286         1.58307
C         46.36248        44.06977         1.62276
C         47.79760        45.88152         0.69719
C         46.85596        45.94742        -0.22877
C         50.02503        29.42723        -1.96932
C         48.66382        29.98947        -1.69417
C         50.03462        32.22199        -1.89971
C         48.71883        31.51134        -2.00347
C         50.14484        33.50409        -1.06280
C         48.89685        34.37080        -1.18321
C         50.22400        36.21713         0.02732
C         48.88651        35.66332        -0.42889
C         50.22139        37.76537         0.26209
C         48.97582        38.20461         1.05525
C         50.32265        40.31104         1.67656
C         48.94560        39.69773         1.41004
C         50.30485        41.47075         2.70966
C         49.13903        42.44928         2.46280
C         50.58203        44.15037         3.42608
C         49.30678        43.77481         2.85953
C         51.11727        29.98552        -1.77456
C         52.53805        32.19351        -1.48361
C         51.63702        31.29241        -2.19855
C         52.56443        33.43734        -1.46010
C         51.42293        34.34617        -1.31518
C         52.64064        36.56195        -0.49686
C         51.43587        35.76019        -0.82389
C         52.53281        37.38958         0.48335
C         51.51009        38.12891         1.02795
C         52.72279        40.00713         2.18171
C         51.45550        39.16710         2.09253
C         52.74481        41.21599         2.50500
C         51.74292        42.15654         2.75600
C         51.62606        43.46345         3.16845
O         48.36907        34.47209        -2.53782
O         49.42586        32.05771        -3.18042
O         38.72682        29.43376        -1.47576
O         38.70911        40.35580         2.60871
O         32.77112        40.15124         1.22800
O         42.29545        30.85731         1.72086
O         51.23396        35.45217        -2.21877
O         38.95003        46.76883        -0.90307
O         40.02282        32.12634         2.07141
O         45.58863        42.36142         3.26199
O         32.06258        42.73911         0.29222
O         38.70468        43.42012        -2.02351
O         37.27447        33.64027        -1.02949
O         40.97459        35.38731         2.75617
O         34.48430        37.79906         1.75739
O         48.38663        44.78598         2.78169
O         32.50314        32.25533        -0.57490
O         39.49311        37.87931         2.87923
O         45.22073        34.04443        -1.63313
O         34.84760        33.27433        -1.37320
O         43.25129        27.08044         1.01715
H         44.18576        27.37337         1.12313
O         44.83160        30.72097         1.38771
H         44.14325        30.37905         2.01154
O         50.25613        38.47720        -0.97917
H         50.90981        38.04980        -1.57529
O         45.59318        44.83124         2.58231
H         46.15852        44.99040         3.36877
O         39.55150        34.55570        -0.67366
H         38.78750        34.55297        -1.30672
O         36.18472        44.37394         0.46170
H         36.36274        43.74862         1.21370
O         32.46733        36.34833         2.25359
H         33.26235        36.85694         2.55938
O         50.48991        35.56950         1.30482
H         50.01101        36.08150         2.01071
O         45.65829        35.84684         2.00653
H         45.59900        34.87732         2.19348
O         38.52468        34.55786         2.83374
H         39.36572        34.52447         3.34835
O         50.18398        40.93384         4.04180
H         49.22095        40.95137         4.29111
O         37.11056        37.85794        -0.87420
H         36.58049        37.14465        -1.31670
O         35.28104        35.89998        -1.25288
H         35.17557        34.93164        -1.52482
O         40.19206        39.77543        -0.66493
H         39.45314        40.21826        -1.13736
O         31.43216        33.91728         2.53465
H         31.56717        34.86450         2.79492
O         43.75617        39.51991         3.32095
H         42.78192        39.56367         3.50767
O         44.92514        44.36297        -2.54546
H         44.33399        44.45535        -3.32399
O         36.85903        37.55274         2.76880
H         37.57180        37.56502         3.44659
O         51.86850        31.34667        -3.54906
H         51.10044        30.96696        -4.02732
O         41.37128        37.81609        -0.24410
H         41.99963        38.40235        -0.71524
O         44.30967        28.29072        -3.09547
H         43.77188        27.59952        -3.53585
O         43.45499        43.31208         2.70026
H         44.14816        43.99063         2.91612
O         46.92058        32.38323        -3.37237
H         47.67430        32.80462        -3.84701
O         46.31159        40.33617        -0.40875
H         45.60216        39.79225        -0.83384
O         35.11702        41.00260         1.92705
H         34.94434        40.25151         2.53369
O         43.16965        46.50646        -0.14129
H         42.23169        46.52984         0.17045
O         41.22048        30.07311        -1.70532
H         40.25868        29.86656        -1.94380
O         48.43339        29.90271        -0.28292
H         48.30847        28.95679        -0.05201
O         50.20472        33.01820         0.29165
H         50.37785        33.78681         0.89563
O         46.21017        43.03590        -0.50594
H         45.84544        43.08818        -1.42217
O         41.16943        39.77593         2.89926
H         40.20278        40.01474         3.08933
O         45.89582        28.43701         0.19597
H         45.98492        29.18325         0.83743
O         37.37838        42.41582         1.67545
H         37.79575        41.80762         2.36110
O         43.45876        35.75519        -0.96833
H         43.94902        35.21244        -1.63527
O         40.54296        44.28153        -3.21247
H         41.02663        44.67426        -3.98212
O         33.01804        36.95197        -1.36326
H         32.50369        36.14717        -1.58350
O         41.27696        26.97836        -2.02675
H         40.32253        26.88635        -2.23565
O         41.05950        43.37386         1.89814
H         41.79237        43.43548         2.56367
O         44.90499        38.05099        -0.79384
H         44.23080        37.41624        -1.15677
O         34.06483        31.41641         2.44416
H         34.90990        31.15295         2.88328
O         41.93184        42.44013        -1.54412
H         41.44771        42.80254        -2.32543
O         50.74398        40.88585         0.43844
H         50.60374        40.22535        -0.28516
O         49.04798        37.50578         2.31637
H         48.19891        37.70205         2.79855
O         37.05870        41.61641        -1.88874
H         36.36490        41.78749        -2.56943
O         46.56409        38.14664         2.49719
H         46.05293        37.34204         2.76298
O         35.21069        30.88889        -1.02137
H         35.04423        31.65349        -1.66119
O         44.79871        33.48942         1.68183
H         44.84167        32.49772         1.75623
O         39.38868        26.10528         1.88238
H         40.23850        25.60300         1.83619
O         34.72929        42.57593        -3.26935
H         34.77526        43.19798        -4.02637
O         47.72013        38.27465        -1.02851
H         47.57175        39.25211        -1.00946
O         36.60284        31.57762         2.29426
H         37.54039        31.64099         2.58540
O         41.78051        24.79986         0.88557
H         41.90068        23.83112         0.96747
O         31.94808        39.27096        -2.20677
H         31.39470        38.56930        -2.60705
O         47.45500        29.82820        -3.75394
H         46.62281        29.53860        -4.18153
O         40.67562        45.36054         0.28016
H         40.66441        44.89921         1.16205
O         42.31797        45.80267        -4.62516
H         42.24408        46.42101        -5.38254
O         33.97927        28.78370        -0.19610
H         34.46170        29.37318        -0.84131
O         35.36715        29.26086         3.13185
H         36.13933        28.89915         3.61325
O         47.62501        41.13486         3.68269
H         46.67649        41.24764         3.96195
O         51.18627        38.59756         3.33835
H         50.94508        39.32602         3.96699
