         732
 CSIRO Nanostructure Databank - Neutral Graphene Oxide Data Set
C         23.48039        25.36959         3.24741
C         22.29549        26.04709         3.19022
C         23.34811        27.98704         2.10383
C         22.22206        27.37170         2.69195
C         23.24779        29.28899         1.47254
C         22.06890        30.06449         1.54360
C         23.06165        31.79892         0.15058
C         21.97164        31.27807         0.88296
C         22.91087        33.02899        -0.67047
C         21.63905        33.79333        -0.63685
C         22.78347        35.89302        -1.29154
C         21.58110        35.08576        -0.99280
C         22.82092        37.30479        -0.74923
C         21.68494        37.97020        -0.08241
C         22.88939        40.09525        -0.15125
C         21.72262        39.34428         0.09053
C         22.89849        41.55263        -0.54008
C         21.65820        42.28965        -0.12670
C         22.90899        44.37276         0.19061
C         21.68016        43.61403         0.14420
C         22.85465        45.80559         0.25175
C         21.70421        46.52539        -0.08712
C         22.85434        48.66986         0.12650
C         21.70272        47.93405        -0.10804
C         25.93467        23.79534         2.90408
C         25.86863        25.11718         2.43544
C         24.78214        26.05517         2.93243
C         25.67157        27.79986         1.32549
C         24.59068        27.28559         2.06970
C         25.55083        29.03821         0.65137
C         24.36801        29.81474         0.75697
C         25.48585        31.71665        -0.44267
C         24.28241        31.10569         0.12970
C         25.47095        33.10348        -0.89759
C         24.14943        33.71508        -1.18150
C         25.36864        35.93058        -1.35384
C         24.09124        35.17123        -1.68439
C         25.39411        37.24264        -0.95135
C         24.15617        37.90176        -0.46923
C         25.43321        40.12775        -0.34715
C         24.16838        39.39357        -0.17851
C         25.40150        41.56137        -0.17350
C         24.17598        42.25651        -0.11432
C         25.39946        44.36510         0.25557
C         24.14890        43.66493         0.13135
C         25.41238        45.80754         0.60534
C         24.05716        46.57011         0.61955
C         25.31735        48.71878         0.53900
C         24.08508        48.03142         0.43713
C         25.38447        50.17229         0.50695
C         28.09690        23.46822         1.84266
C         27.01116        22.97184         2.59554
C         28.04115        24.79600         1.35728
C         26.91551        25.60563         1.61646
C         27.97185        27.53665         0.51071
C         26.88512        26.98969         1.13891
C         28.00056        29.04120         0.35674
C         26.67637        29.51889        -0.23478
C         27.89059        31.59656        -1.12366
C         26.66582        31.00822        -0.47243
C         27.91393        33.10194        -1.11926
C         26.65512        33.77721        -1.18280
C         27.90985        35.95681        -1.34862
C         26.64907        35.20124        -1.71205
C         27.84916        37.35986        -1.19220
C         26.62967        38.01442        -0.87481
C         27.94280        40.09899        -0.28812
C         26.61500        39.41669        -0.55700
C         27.88365        41.61374        -0.23706
C         26.64817        42.28287        -0.09709
C         27.88286        44.46773         0.33861
C         26.60679        43.69871         0.09755
C         27.80221        45.87966        -0.24680
C         26.60237        46.61111         0.33421
C         27.79888        48.78761         0.24090
C         26.55465        47.98929         0.44504
C         27.85276        50.17576         0.87237
C         26.53743        50.87341         0.60515
C         30.46130        20.53510         1.48598
C         29.28534        21.28399         1.64055
C         30.59897        23.41057         1.53241
C         29.28914        22.67328         1.60795
C         30.50570        24.71047         0.78255
C         29.13323        25.22271         0.40041
C         30.42406        27.43220        -0.20269
C         29.13002        26.72170         0.09045
C         30.45153        28.91162        -0.28103
C         29.22653        29.62145        -0.30505
C         30.40483        31.67151        -0.91049
C         29.19403        30.96396        -0.69749
C         30.39022        33.09250        -1.13033
C         29.12991        33.79646        -1.22213
C         30.38798        35.93176        -1.23731
C         29.13763        35.24524        -1.30681
C         30.39436        37.39857        -1.40567
C         29.08257        38.14228        -1.40875
C         30.37065        40.27719        -0.85898
C         29.03959        39.65728        -1.25629
C         30.36699        41.64654        -0.51699
C         29.11336        42.33590        -0.28032
C         30.34273        44.46664        -0.10224
C         29.13751        43.73948        -0.08513
C         30.31243        45.92279        -0.01218
C         29.11138        46.60165        -0.04115
C         30.34256        48.78960         0.38094
C         29.07827        48.07022        -0.02457
C         30.24912        50.26951         0.08807
C         29.09802        50.95425         0.44072
C         30.30250        53.09011         0.25299
C         29.13301        52.38289         0.47560
C         32.93653        18.97128         1.15848
C         32.92133        20.38330         1.02152
C         31.70889        21.15407         1.20546
C         32.95864        23.21663         0.69839
C         31.76510        22.56454         1.09107
C         32.94864        24.62904         0.43764
C         31.68769        25.33787         0.37659
C         32.90747        27.40760        -0.22765
C         31.70052        26.71243        -0.05043
C         32.91573        28.82982        -0.51514
C         31.66347        29.56573        -0.55838
C         32.86154        31.68602        -0.99448
C         31.64539        30.97699        -0.79802
C         32.86387        33.09131        -1.09322
C         31.61561        33.80138        -1.12663
C         32.86327        35.96361        -1.06868
C         31.61073        35.24234        -1.14527
C         32.84632        37.42074        -1.06547
C         31.63602        38.14223        -1.13555
C         32.82573        40.27292        -0.77982
C         31.59321        39.56055        -0.95099
C         32.83916        41.67720        -0.53685
C         31.59615        42.37326        -0.39526
C         32.82950        44.51502        -0.09191
C         31.59426        43.78376        -0.20495
C         32.79803        45.92398        -0.00334
C         31.57482        46.65119        -0.02006
C         32.79890        48.78687        -0.22305
C         31.59363        48.06714        -0.05253
C         32.77818        50.22190        -0.53319
C         31.41925        51.00837        -0.38819
C         32.74244        53.13308        -0.34537
C         31.49581        52.45058        -0.16985
C         32.80549        54.55406        -0.35182
C         35.36020        18.89285         0.84616
C         34.11105        18.25404         1.07888
C         35.36752        20.30313         0.63953
C         34.14747        21.04892         0.73322
C         35.38842        23.13386         0.22262
C         34.16411        22.46530         0.53939
C         35.37985        24.55286         0.04092
C         34.15165        25.29252         0.10323
C         35.38063        27.38982        -0.38314
C         34.15165        26.69861        -0.17172
C         35.38807        28.81619        -0.58961
C         34.12490        29.49517        -0.71764
C         35.42572        31.70959        -0.99673
C         34.11000        30.92172        -1.08918
C         35.31550        33.14696        -0.78162
C         34.10917        33.82185        -0.96375
C         35.33938        35.99035        -0.83122
C         34.07367        35.27358        -0.91886
C         35.32745        37.43473        -1.03045
C         34.07034        38.13692        -1.03507
C         35.26067        40.29623        -0.94197
C         34.04952        39.56382        -0.93361
C         35.27992        41.66680        -0.64390
C         34.07693        42.37756        -0.40099
C         35.30982        44.49227         0.02238
C         34.09709        43.80534        -0.11772
C         35.36424        45.95228         0.22791
C         34.03599        46.69673         0.20593
C         35.26499        48.83659        -0.27916
C         34.05293        48.13318        -0.12581
C         35.24960        50.27085        -0.37997
C         34.01585        50.98820        -0.40953
C         35.22904        53.12795        -0.38222
C         33.98730        52.40650        -0.41858
C         35.24950        54.54660        -0.37816
C         34.00565        55.23349        -0.38955
C         37.81925        16.10787         1.39233
C         36.63371        16.77147         1.19783
C         37.82349        18.82765         0.57909
C         36.59878        18.15940         0.86148
C         37.79434        20.21325         0.26101
C         36.59692        20.96922         0.33712
C         37.81920        23.08713        -0.20255
C         36.60436        22.39413         0.10707
C         37.79396        24.49012        -0.35670
C         36.59431        25.23672        -0.22650
C         37.83824        27.38473        -0.47266
C         36.60252        26.66935        -0.38236
C         37.85124        28.81097        -0.44886
C         36.61357        29.52465        -0.57182
C         37.81298        31.66498        -0.33644
C         36.65708        30.97684        -0.60907
C         37.80681        33.13505        -0.16853
C         36.45891        33.87335        -0.12847
C         37.82171        36.01088        -0.55978
C         36.52525        35.30984        -0.59760
C         37.79785        37.46906        -0.96888
C         36.51361        38.13159        -1.22575
C         37.79560        40.35210        -1.39104
C         36.48793        39.59939        -1.37093
C         37.84278        41.71871        -0.84011
C         36.57840        42.31662        -0.37435
C         37.89058        44.50570         0.00071
C         36.58720        43.75757         0.05283
C         37.86787        46.02718        -0.09537
C         36.57299        46.71732        -0.12452
C         37.73139        48.82036        -0.60603
C         36.54184        48.12310        -0.32617
C         37.74242        50.30398        -0.83333
C         36.46587        50.99757        -0.44788
C         37.71916        53.10251        -0.26485
C         36.46574        52.40019        -0.38772
C         37.74488        54.50676        -0.24435
C         36.51913        55.25230        -0.35354
C         37.82122        57.33076        -0.37037
C         36.59302        56.65077        -0.40022
C         40.29378        15.00100         2.52439
C         40.28274        16.11538         1.63972
C         39.08181        16.75055         1.21750
C         40.29986        18.78807         0.56290
C         39.08841        18.10990         0.71339
C         40.34598        20.15881         0.03209
C         39.02900        20.88828        -0.17067
C         40.29418        22.98085        -0.49472
C         39.07192        22.35675        -0.29272
C         40.30325        24.42995        -0.78422
C         39.02887        25.21335        -0.68783
C         40.28252        27.37519        -0.42853
C         39.07134        26.68181        -0.48256
C         40.30788        28.80084        -0.42037
C         39.09301        29.50087        -0.38044
C         40.34729        31.68822        -0.55857
C         39.11778        30.96353        -0.02039
C         40.34673        33.07799        -0.70072
C         39.11379        33.85438        -0.42177
C         40.31036        35.95441        -1.00019
C         39.09752        35.28380        -0.73827
C         40.34439        37.36880        -1.20757
C         39.07064        38.07742        -1.43339
C         40.33703        40.21843        -1.08293
C         39.07156        39.57887        -1.51404
C         40.32179        41.68234        -0.78230
C         39.03497        42.40818        -0.74537
C         40.29053        44.52696        -0.71528
C         39.09907        43.81808        -0.47411
C         40.24763        45.97744        -0.77618
C         39.07543        46.67514        -0.60581
C         40.25578        48.85883        -0.55217
C         39.00691        48.12443        -1.01358
C         40.21043        50.22532        -0.16920
C         38.97440        50.97473        -0.26339
C         40.12240        53.07163         0.42505
C         38.92993        52.34032        -0.04873
C         40.16945        54.52463         0.22313
C         39.00901        55.21529        -0.10634
C         40.31951        57.35035        -0.25373
C         39.03216        56.65530        -0.23712
C         40.40389        58.69972        -0.66119
C         42.71217        15.19509         2.86872
C         41.46362        14.55952         3.11143
C         42.80525        16.24277         1.97680
C         41.58450        16.69610         1.29815
C         42.77707        18.98704         1.12536
C         41.58808        18.12555         0.73588
C         42.81450        20.30730         0.39875
C         41.60603        20.93174         0.06991
C         42.80614        22.98908        -0.44464
C         41.57865        22.30140        -0.33274
C         42.81302        24.41916        -0.92866
C         41.57239        25.15021        -0.46602
C         42.83128        27.39227        -0.34934
C         41.54880        26.62560        -0.25438
C         42.78379        28.83582        -0.67572
C         41.57683        29.52421        -0.56739
C         42.78747        31.65147        -0.94905
C         41.56375        30.95787        -0.71207
C         42.78615        33.07572        -1.05586
C         41.55942        33.79449        -0.95991
C         42.78038        35.92686        -1.24596
C         41.55684        35.22366        -1.06980
C         42.80379        37.35576        -1.35787
C         41.56498        38.07171        -1.35493
C         42.79495        40.22894        -1.31997
C         41.59864        39.50883        -1.36670
C         42.80103        41.67106        -1.12892
C         41.56448        42.43098        -0.97627
C         42.80317        44.50341        -1.44887
C         41.51034        43.81349        -1.02665
C         42.77403        46.03616        -1.33603
C         41.47889        46.75595        -1.09824
C         42.68184        48.84090        -0.28586
C         41.47888        48.17826        -0.62978
C         42.65016        50.17723         0.14883
C         41.42216        50.86855         0.20782
C         42.70543        53.04484         0.44278
C         41.42629        52.29667         0.59079
C         42.68609        54.44748         0.34529
C         41.43039        55.25078         0.63480
C         42.75398        57.31635        -0.00392
C         41.50613        56.65764         0.08313
C         42.80483        58.66450        -0.40414
C         41.63320        59.35031        -0.72108
C         45.29149        16.22529         1.79721
C         44.06821        16.90504         1.63467
C         45.29771        18.87382         0.80390
C         44.08006        18.22683         1.12929
C         45.30368        20.27875         0.38217
C         44.05507        20.97435         0.21775
C         45.29509        23.04920        -0.32153
C         44.04763        22.33870        -0.20908
C         45.28435        24.48589        -0.53641
C         44.08751        25.15095        -0.63476
C         45.26004        27.30551        -1.21971
C         44.08867        26.63095        -0.56828
C         45.25717        28.80076        -1.02018
C         44.03067        29.51298        -0.92386
C         45.25820        31.62795        -1.26664
C         44.02805        30.93589        -1.04391
C         45.26019        33.07522        -1.30430
C         44.02328        33.78381        -1.20028
C         45.24851        35.92447        -1.31431
C         44.01756        35.20631        -1.25667
C         45.25086        37.34020        -1.47363
C         44.03592        38.07017        -1.47029
C         45.24912        40.23942        -1.32611
C         44.04717        39.52079        -1.42828
C         45.25887        41.64543        -1.02446
C         44.00380        42.34607        -0.97021
C         45.26719        44.50399        -0.84196
C         43.93080        43.83075        -0.64823
C         45.32585        45.99023        -0.86395
C         44.05826        46.78189        -1.03451
C         45.14456        48.65823         0.38631
C         43.99527        48.16826        -0.48058
C         45.18986        50.16114         0.41928
C         43.88348        50.84903         0.73790
C         45.14839        52.98905         0.23404
C         43.92921        52.32553         0.44175
C         45.05672        54.34698        -0.10139
C         43.90480        55.12639         0.12390
C         45.11859        57.19516         0.76890
C         43.99527        56.57292         0.25024
C         46.48893        16.84693         1.47041
C         47.80387        18.78009         0.57758
C         46.51438        18.15957         0.96982
C         47.79324        20.25218         0.15423
C         46.50430        20.97183         0.15695
C         47.77492        23.10888        -0.18059
C         46.51512        22.37996        -0.11322
C         47.77589        24.52141        -0.40627
C         46.54015        25.23542        -0.56760
C         47.75730        27.34859        -0.91891
C         46.54225        26.60857        -0.83076
C         47.74361        28.76120        -1.15311
C         46.48014        29.48689        -1.17258
C         47.73653        31.57070        -1.66723
C         46.46934        30.89610        -1.34639
C         47.75262        33.11316        -1.61507
C         46.47497        33.80210        -1.33887
C         47.73841        35.92816        -1.17499
C         46.48333        35.21079        -1.26340
C         47.77693        37.28415        -1.34944
C         46.53583        38.01222        -1.65021
C         47.75453        40.21881        -1.01166
C         46.54237        39.57135        -1.50212
C         47.73217        41.58777        -0.70724
C         46.48474        42.29962        -0.78721
C         47.73128        44.46177        -0.19407
C         46.46341        43.72556        -0.40376
C         47.73669        45.94592        -0.17285
C         46.53201        46.66769        -0.32037
C         47.65504        48.68737         0.47467
C         46.47014        48.01136         0.07340
C         47.60507        50.08802         0.71121
C         46.39478        50.82993         0.53711
C         47.68067        53.01180         0.98768
C         46.52911        52.31102         0.20607
C         47.77479        54.43098         1.13781
C         46.76883        55.36081         0.62966
C         46.31610        56.52790         1.20122
C         50.22362        18.99120         0.98707
C         49.07588        18.27468         1.10571
C         50.25388        20.35909         0.52135
C         49.04918        21.01795         0.24616
C         50.24539        23.15853        -0.03692
C         49.01024        22.43428         0.01589
C         50.24116        24.54316        -0.35353
C         49.00110        25.23772        -0.52412
C         50.20278        27.35851        -1.03470
C         48.98932        26.65048        -0.78832
C         50.20429        28.72951        -1.28782
C         48.97544        29.45602        -1.29114
C         50.23333        31.60559        -1.48780
C         49.00975        30.87625        -1.49222
C         50.22105        33.05226        -1.31098
C         49.02265        33.75715        -1.29543
C         50.25946        35.90528        -0.92299
C         48.96348        35.15815        -0.74302
C         50.27410        37.29924        -0.92632
C         49.06562        38.08133        -1.38230
C         50.22222        40.14485        -0.46159
C         48.92603        39.37639        -0.57075
C         50.18291        41.55989        -0.27361
C         48.96214        42.26988        -0.38641
C         50.20407        44.42502         0.16118
C         49.02868        43.77014        -0.52320
C         50.14654        45.81372         0.43365
C         48.92256        46.58302         0.26569
C         50.08264        48.64169         1.02945
C         48.89334        47.96793         0.56345
C         50.03495        50.01010         1.37836
C         48.71300        50.72842         1.48866
C         49.96019        52.83515         1.95189
C         48.78302        52.23703         1.40933
C         49.97391        54.23544         2.15771
C         48.88800        55.00316         1.78820
C         52.74833        20.47040         0.71963
C         51.50736        21.09195         0.48511
C         52.71540        23.22454         0.16159
C         51.49064        22.48809         0.18749
C         52.70232        24.60548        -0.25342
C         51.48396        25.22291        -0.54428
C         52.74487        27.32209        -1.29747
C         51.45141        26.57600        -1.13080
C         52.71912        28.77183        -1.34152
C         51.45078        29.43117        -1.78970
C         52.70755        31.61300        -1.34457
C         51.47425        30.91811        -1.50863
C         52.69951        33.04588        -1.11509
C         51.47885        33.74321        -1.07008
C         52.70005        35.87894        -0.71767
C         51.47690        35.17307        -0.87903
C         52.68366        37.29330        -0.51360
C         51.46905        38.00756        -0.63585
C         52.62188        40.11406         0.05056
C         51.43624        39.44275        -0.39803
C         52.56720        41.49646         0.33620
C         51.39584        42.24873         0.10071
C         52.59351        44.36837         0.71960
C         51.38521        43.67699         0.35386
C         52.55089        45.76914         0.89735
C         51.32874        46.49598         0.84353
C         52.46084        48.54953         1.68162
C         51.29966        47.90039         1.14865
C         52.37353        49.88756         2.11716
C         51.18262        50.65221         1.91081
C         52.28957        52.63297         2.86123
C         51.13236        52.04094         2.26181
C         53.93229        21.20919         0.75670
C         55.14691        23.45187         0.77036
C         53.93397        22.58308         0.50365
C         55.19290        24.67837        -0.11265
C         53.95991        25.32574        -0.42221
C         55.21257        27.36302        -0.99215
C         53.98613        26.64060        -0.90949
C         55.22748        28.75366        -1.28610
C         53.98451        29.47197        -1.73146
C         55.19545        31.62569        -1.27181
C         53.95845        30.93867        -1.38164
C         55.19452        33.06530        -1.05833
C         53.94858        33.75184        -0.96103
C         55.16065        35.86669        -0.53857
C         53.93979        35.16118        -0.72962
C         55.13306        37.28297        -0.19164
C         53.89999        37.99031        -0.18309
C         55.02398        39.98247         0.72191
C         53.85656        39.36401         0.20233
C         54.92907        41.34702         1.31791
C         53.61739        42.13590         1.21519
C         55.01407        44.26589         1.23437
C         53.80836        43.62236         0.95906
C         55.09899        45.73489         1.13105
C         53.79984        46.52804         1.02955
C         54.90976        48.50433         2.03711
C         53.74609        47.88105         1.63280
C         54.85024        49.73936         2.83068
C         53.48496        50.48424         2.86697
C         53.40879        51.91288         3.16839
C         57.61717        23.25455         0.38027
C         56.47624        22.74687         0.86464
C         57.65190        24.43719        -0.56177
C         56.40818        25.28771        -0.43399
C         57.68344        27.34915        -0.98234
C         56.43913        26.65783        -0.81196
C         57.68264        28.74221        -1.18796
C         56.43712        29.46343        -1.30506
C         57.71412        31.59998        -1.33195
C         56.41265        30.89947        -1.36659
C         57.72625        33.08776        -1.10315
C         56.41037        33.79522        -0.96498
C         57.64527        36.01478        -0.68757
C         56.38591        35.17487        -0.67896
C         57.59829        37.17820         0.31432
C         56.31232        37.96681         0.18044
C         57.52962        39.91225         1.13789
C         56.25606        39.28250         0.68238
C         57.51681        41.35859         1.55200
C         56.20472        42.08552         1.63520
C         57.43792        44.25273         1.75624
C         56.23195        43.57000         1.56887
C         57.46120        45.70702         1.85563
C         56.29630        46.41844         1.63771
C         57.48516        48.60609         2.23255
C         56.23970        47.89095         1.76739
C         57.31585        49.91643         2.90785
C         56.10601        50.45075         3.14585
C         60.16570        24.56816        -0.46383
C         58.94459        25.23174        -0.57220
C         60.15339        27.29247        -1.15924
C         58.93029        26.61868        -0.88870
C         60.12334        28.67788        -1.60172
C         58.91869        29.42304        -1.48411
C         59.98468        31.33500        -2.49992
C         58.88899        30.80913        -1.81189
C         59.91955        33.69997        -2.29255
C         58.89224        33.96889        -1.41679
C         60.10045        36.14476        -0.86474
C         58.96440        35.19825        -0.53687
C         60.06945        37.46303        -0.27667
C         58.85335        38.02262         0.20528
C         60.00823        40.12069         0.75274
C         58.81999        39.34552         0.66638
C         59.98545        41.50112         1.23398
C         58.75826        42.15375         1.48658
C         59.92125        44.24689         1.98495
C         58.70870        43.54037         1.77821
C         59.89742        45.65622         2.36442
C         58.69066        46.39353         2.23663
C         59.87237        48.39991         2.96707
C         58.70016        47.78986         2.49713
C         61.37537        25.25305        -0.65456
C         61.37131        26.59004        -1.02161
C         61.24649        29.29240        -2.20085
C         61.15211        30.57609        -2.71579
C         61.02041        34.58475        -2.48375
C         61.09758        35.77947        -1.77284
C         61.24134        38.25762        -0.21884
C         61.21474        39.53560         0.30546
C         61.17824        42.24233         1.40050
C         61.14371        43.56467         1.80869
C         61.05787        46.30116         2.83259
C         61.03862        47.65581         3.14968
O         38.10719        45.32209         1.18911
O         47.70786        32.39310        -2.88586
O         40.62493        52.64638         1.76438
O         42.02259        46.59281        -2.45789
O         36.64165        42.69305         1.06389
O         24.27441        38.35691         0.90215
O         29.73542        37.79992        -2.68042
O         40.32769        40.67488         0.31677
O         24.71363        46.11246         1.84375
O         41.82048        16.99697        -0.12939
O         57.96801        32.16954         0.02873
O         41.55768        25.67745         0.88592
O         37.90808        37.08537         0.45695
O         59.92715        32.58244        -3.13613
O         53.95390        49.64842         3.98586
O         36.99706        40.21755        -2.62166
O         23.36642        32.82246        -2.06788
O         46.97645        52.26145        -1.12685
O         39.61814        24.82851        -2.00391
O         43.76445        27.13057         0.76987
O         52.04606        26.64556        -2.49348
O         46.97005        43.95244         0.97014
O         34.70968        46.39715         1.47829
O         55.40496        41.48025         2.70848
O         44.30949        47.94956        -1.88395
O         39.70007        20.21897        -1.29420
O         31.94936        50.56268        -1.68334
O         34.89868        31.24370        -2.28406
O         47.84770        19.16401        -0.83465
O         45.54768        45.18842        -2.08878
O         57.59238        40.27936         2.55690
O         57.09084        48.62747         0.81292
O         46.19554        54.99324        -0.60106
O         38.62204        33.56834         0.99100
O         46.65359        38.89522        -2.81846
O         22.53929        37.02477        -2.17224
O         29.53850        26.93008        -1.30949
O         28.31978        48.69444        -1.12780
O         39.10048        38.78117        -2.72373
O         54.66355        46.34241        -0.14280
O         28.36577        39.63404         1.03124
H         27.63587        39.80655         1.66275
O         30.89907        23.79197         2.95005
H         31.03526        22.95765         3.44858
O         26.71806        35.10884        -3.16815
H         25.78812        35.02495        -3.50166
O         30.37374        48.67666         1.84420
H         31.26390        48.93803         2.16015
O         43.72597        50.72372         2.19071
H         43.74496        49.75845         2.39274
O         43.02118        44.18458        -2.83469
H         42.63227        44.91512        -3.36716
O         25.29457        26.55234         4.23213
H         24.62258        27.17332         4.58609
O         41.34040        55.36342         2.09513
H         41.18533        54.44670         2.43077
O         52.98142        42.08560         2.53404
H         53.71551        42.00523         3.19038
O         27.93504        49.96235         2.30628
H         27.91243        50.83567         2.74835
O         54.90543        23.98612         2.12198
H         55.64826        24.58917         2.33708
O         51.38061        29.26833        -3.27438
H         51.43831        28.28881        -3.41934
O         28.02674        29.59940         1.70902
H         28.83610        29.28122         2.16062
O         48.80719        35.00229         0.71598
H         49.65466        34.65802         1.07009
O         42.49838        19.33276         2.53026
H         43.21152        19.93061         2.84007
O         42.70082        24.39220        -2.38687
H         43.47675        23.91445        -2.74817
O         26.53993        28.88832        -1.54890
H         25.63600        29.07692        -1.87976
O         27.99654        44.65979         1.78039
H         28.05070        43.77860         2.20492
O         27.77446        31.21583        -2.54924
H         27.58353        30.24614        -2.56236
O         59.13884        34.71229         0.81168
H         58.69281        35.32899         1.44090
O         43.59681        43.98972         0.75469
H         44.27793        43.53306         1.29306
O         49.33521        38.43103        -2.76248
H         48.47654        38.71712        -3.16401
O         39.26632        30.98240         1.43738
H         39.17363        31.92999         1.70774
O         45.09757        27.09238        -2.66085
H         45.85066        27.52427        -3.11705
O         48.58408        38.95279         0.79261
H         48.62592        39.74172         1.37406
O         44.79589        48.19498         1.74855
H         45.54971        48.41676         2.33720
O         49.21674        44.02934        -1.95829
H         50.05210        43.59831        -2.23735
O         48.28516        50.47068         2.90154
H         48.52999        49.54559         3.12033
O         36.09652        33.95315         1.28747
H         36.91085        34.23885         1.76368
O         57.55909        36.64293         1.67352
H         57.55230        37.40212         2.29608
O         54.05953        29.44612        -3.21380
H         53.12905        29.57342        -3.54203
O         28.69838        40.20342        -2.54992
H         29.15642        39.64848        -3.22217
O         39.02585        48.11760        -2.47795
H         38.87660        49.05408        -2.76407
O         57.69268        36.65270        -1.99062
H         57.63655        35.95768        -2.67931
O         27.58461        45.79124        -1.68019
H         27.69786        46.69951        -2.04174
O         22.91969        41.54982        -2.02003
H         22.99226        42.48248        -2.31483
O         28.82000        24.52175        -0.84595
H         29.15715        25.09887        -1.57360
O         24.04834        35.07601        -3.13617
H         23.50320        34.28063        -3.34598
O         37.84109        50.51778        -2.31330
H         36.96263        50.30142        -2.69499
O         57.58036        23.86252        -1.91292
H         56.70299        23.43519        -2.00948
H         23.49344        24.35429         3.66590
H         21.36858        25.55744         3.52326
H         21.24840        27.87733         2.69791
H         21.20002        29.70553         2.11041
H         21.02826        31.83713         0.93770
H         20.70855        33.25280        -0.41306
H         20.61062        35.60053        -1.03608
H         20.72780        37.44082         0.01726
H         20.78482        39.85609         0.35102
H         20.69344        41.76555        -0.16646
H         20.73580        44.12936         0.37053
H         20.78449        45.99676        -0.37204
H         22.80952        49.76331         0.03543
H         20.77354        48.45883        -0.36990
H         25.14378        23.39619         3.55263
H         24.44348        50.73173         0.40268
H         27.04226        21.94856         2.99510
H         26.49539        51.97264         0.59196
H         30.38857        19.44124         1.53921
H         28.33457        20.74576         1.76796
H         30.29175        54.17955         0.39644
H         28.23210        52.94012         0.76791
H         32.00272        18.42672         1.35021
H         31.87301        55.13471        -0.34231
H         34.06490        17.16465         1.20569
H         33.98408        56.33132        -0.40486
H         37.79009        15.04896         1.68340
H         35.69645        16.22118         1.35066
H         37.80341        58.42707        -0.43324
H         35.67646        57.25046        -0.48027
H         39.34957        14.50531         2.78854
H         39.49725        59.24902        -0.94793
H         43.60316        14.83416         3.40139
H         41.42935        13.71493         3.81333
H         43.77565        59.17241        -0.48836
H         41.68098        60.40058        -1.04049
H         45.30000        15.18846         2.15972
H         45.02452        58.25638         1.05050
H         47.42508        16.28431         1.58332
H         46.85013        56.95306         2.06443
H         51.15275        18.54506         1.36648
H         49.10168        17.30251         1.61736
H         50.84692        54.73654         2.59322
H         48.92130        56.09309         1.92708
H         52.80364        19.39114         0.91270
H         52.27749        53.69688         3.13081
H         54.87053        20.69199         1.00061
H         54.24083        52.39498         3.69879
H         58.55723        22.71197         0.56450
H         56.52132        21.85445         1.50860
H         58.21239        50.46580         3.22892
H         56.03263        51.40864         3.68002
H         60.19559        23.49204        -0.24548
H         59.89137        49.47737         3.17676
H         62.32762        24.71558        -0.54634
H         62.32718        27.10250        -1.19479
H         62.18007        28.72991        -2.33422
H         61.99038        31.02336        -3.26539
H         61.79205        34.31853        -3.21693
H         61.93188        36.46421        -1.98186
H         62.20032        37.84122        -0.55479
H         62.15485        40.09986         0.35234
H         62.15564        41.77055         1.23850
H         62.09497        44.09421         1.94923
H         61.99063        45.73808         2.96646
H         61.94906        48.14705         3.51886
