         204
 CSIRO Nanostructure Databank - Neutral Graphene Oxide Data Set
C        -11.04093         0.74197         0.70580
C         -9.84799         1.51420         0.51312
C         -8.55112         0.81525         0.58750
C         -7.35150         1.48044         0.07373
C         -6.15328         0.74280        -0.10863
C         -4.95768         1.41375        -0.46259
C         -3.72370         0.71177        -0.50359
C         -2.48596         1.44090        -0.53884
C         -1.25088         0.73172        -0.46791
C         -0.02179         1.44231        -0.39503
C          1.22403         0.72187        -0.30766
C          2.45334         1.40828        -0.27028
C          3.69070         0.71111        -0.12519
C          4.92039         1.44029        -0.09054
C          6.20853         0.75483         0.26532
C          7.40522         1.42935        -0.36558
C          8.68211         0.73096        -0.28265
C          9.87514         1.44423        -0.27252
C         11.11722         0.68157        -0.20995
C         -9.84985         2.88452         0.28793
C         -8.64989         3.61585         0.03928
C         -7.38851         2.89816        -0.15318
C         -6.23880         3.58158        -0.51851
C         -4.98959         2.84577        -0.91302
C         -3.72156         3.59733        -0.59378
C         -2.50954         2.87839        -0.49768
C         -1.27315         3.58751        -0.32896
C         -0.03730         2.87476        -0.30217
C          1.17773         3.58356        -0.12033
C          2.46850         2.89563        -0.47583
C          3.71488         3.55680         0.02289
C          4.92826         2.86737        -0.02045
C          6.16502         3.62008         0.06465
C          7.40742         2.94435        -0.31773
C          8.70080         3.63552        -0.16320
C          9.87724         2.88031        -0.19953
C         -8.65475         5.01710        -0.02157
C         -7.48522         5.76008        -0.28671
C         -6.27175         5.05057        -0.83874
C         -4.96803         5.75025        -0.51426
C         -3.74417         5.02294        -0.50132
C         -2.50797         5.74429        -0.37416
C         -1.26863         5.00977        -0.26994
C         -0.04985         5.68246        -0.00597
C          1.15513         4.96304         0.13431
C          2.39431         5.65213         0.58823
C          3.70831         4.94638         0.47394
C          4.96075         5.72464         0.44831
C          6.18081         5.01204         0.25436
C          7.44194         5.73765         0.20796
C          8.65566         5.04191         0.05691
C         -7.44282         7.15048        -0.14606
C         -6.22531         7.86742        -0.22509
C         -4.97610         7.14873        -0.34324
C         -3.74382         7.86775        -0.24873
C         -2.52648         7.15710        -0.32144
C         -1.26895         7.92293        -0.33004
C          0.00391         7.15319        -0.10697
C          1.15586         7.90698         0.45790
C          2.42361         7.14509         0.72089
C          3.70339         7.86118         0.60410
C          4.93397         7.13315         0.51576
C          6.18665         7.85333         0.44054
C          7.39258         7.15879         0.32362
C         -6.18629         9.28048        -0.06935
C         -4.99204         9.97277        -0.01513
C         -3.73591         9.30198        -0.09147
C         -2.52020        10.01706         0.02175
C         -1.26772         9.37609        -0.04026
C         -0.03349        10.05088         0.08339
C          1.20496         9.37115         0.24068
C          2.45185         9.99675         0.36696
C          3.67746         9.27149         0.50621
C          4.94260         9.96549         0.47523
C          6.13333         9.29284         0.46253
C        -11.04209        -0.63355         0.75826
C         -9.84395        -1.41866         0.63190
C         -8.55186        -0.70590         0.66827
C         -7.33872        -1.41936         0.23975
C         -6.14887        -0.70216        -0.00538
C         -4.95031        -1.42457        -0.29676
C         -3.71468        -0.70675        -0.45072
C         -2.47188        -1.42402        -0.48427
C         -1.24307        -0.70481        -0.44641
C         -0.01054        -1.42512        -0.36327
C          1.22087        -0.70782        -0.27186
C          2.45640        -1.41614        -0.12582
C          3.67938        -0.70676         0.01254
C          4.91974        -1.41448         0.51307
C          6.20784        -0.73729         0.11981
C          7.38669        -1.43829        -0.00126
C          8.64082        -0.75918        -0.50897
C          9.91493        -1.47092        -0.13046
C         11.12913        -0.67939        -0.11818
C         -9.84146        -2.79337         0.48801
C         -8.61997        -3.54055         0.31799
C         -7.37491        -2.82834         0.14398
C         -6.17349        -3.54517        -0.13769
C         -4.97467        -2.83411        -0.36430
C         -3.75018        -3.56763        -0.83896
C         -2.46887        -2.84061        -0.52160
C         -1.25550        -3.56197        -0.48147
C         -0.01196        -2.85148        -0.36936
C          1.23471        -3.55861        -0.29445
C          2.43305        -2.84468        -0.14999
C          3.73182        -3.59067        -0.29280
C          4.95501        -2.87783         0.21281
C          6.16803        -3.55362         0.28483
C          7.41583        -2.86345         0.18828
C          8.65933        -3.59474         0.09341
C          9.89972        -2.83089         0.02233
C         -8.61206        -4.93530         0.28617
C         -7.40124        -5.67444         0.12488
C         -6.18078        -4.98188        -0.11723
C         -4.94919        -5.70611        -0.23207
C         -3.72868        -5.02498        -0.45950
C         -2.49580        -5.72374        -0.49980
C         -1.27632        -4.99317        -0.58139
C         -0.00412        -5.70076        -0.73393
C          1.25078        -5.00964        -0.41783
C          2.40607        -5.74767        -0.18733
C          3.62314        -5.00984         0.20737
C          4.88515        -5.76034         0.48379
C          6.18332        -5.01581         0.52448
C          7.48025        -5.77511         0.38433
C          8.67889        -4.98381         0.06727
C         -7.38669        -7.09138         0.23356
C         -6.18912        -7.81216         0.17270
C         -4.94949        -7.12533        -0.05191
C         -3.72594        -7.84567        -0.08514
C         -2.49016        -7.16521        -0.31981
C         -1.28630        -7.89907        -0.29068
C         -0.00927        -7.24441        -0.59063
C          1.23714        -7.91260        -0.20404
C          2.42989        -7.18585        -0.09430
C          3.68073        -7.89143         0.12134
C          4.89516        -7.21770         0.28188
C          6.16385        -7.90894         0.20542
C          7.37603        -7.23128         0.17412
C         -6.16086        -9.24157         0.35255
C         -4.98283        -9.93152         0.35040
C         -3.72256        -9.26222         0.14952
C         -2.51069        -9.95860         0.21262
C         -1.27333        -9.29412         0.02160
C         -0.03190        -9.99380         0.09986
C          1.20365        -9.33112         0.03073
C          2.45397       -10.02299         0.12791
C          3.66276        -9.33869         0.11383
C          4.93168       -10.03017         0.12081
C          6.11519        -9.35461         0.11398
O          6.93860        -5.36003         1.72646
O          4.00695        -5.27453         1.58437
O          7.20112         2.18745        -1.58884
O         -8.34810         0.10960         1.87044
O          4.83404        -1.29046         2.01307
H          5.27710        -2.07820         2.39911
O          2.96142         5.02427         1.78719
O          1.53091         7.55636         1.82597
O         -5.02023         2.78132        -2.42310
H         -5.68918         2.10492        -2.66670
O         -3.84278        -3.54991        -2.32348
H         -3.07536        -4.05911        -2.66342
O          3.95131        -3.73974        -1.74257
H          3.94665        -2.84427        -2.14275
O         -6.40100         5.14633        -2.30597
H         -5.77921         4.47077        -2.68068
O          8.54560        -0.89030        -1.97756
H          9.28522        -0.37540        -2.36516
O          2.56368         3.08990        -1.95958
H          3.33621         2.56867        -2.27000
O         -0.36110         7.59722        -1.45461
O          6.38530         0.98647         1.71100
H          5.75628         0.36991         2.16646
O          0.04880        -6.58386        -1.90139
H         12.08805        -1.20862        -0.00618
H         12.06619         1.23766        -0.18889
H         10.84538         3.39413        -0.09900
H          9.60087         5.60455         0.09862
H          8.33498         7.72576         0.27768
H          7.08037         9.85187         0.43420
H          4.93394        11.06526         0.45078
H          2.50986        11.09222         0.27522
H         -0.03689        11.15110         0.12481
H         -2.55983        11.10515         0.18264
H         -5.00014        11.06595         0.10677
H         -7.13681         9.82744         0.01645
H         -8.36435         7.69585         0.11165
H         -9.58358         5.55692         0.22137
H        -10.80445         3.43298         0.30062
H        -11.99934         1.28022         0.75710
H        -12.00056        -1.16623         0.84895
H        -10.79450        -3.34427         0.50193
H         -9.55390        -5.48589         0.43069
H         -8.33227        -7.62473         0.41283
H         -7.11278        -9.76911         0.51208
H         -4.97756       -11.01989         0.50977
H         -2.51454       -11.03761         0.42759
H         -0.04939       -11.08119         0.26579
H          2.44962       -11.12132         0.19632
H          4.92475       -11.13006         0.09554
H          7.06642        -9.90601         0.08029
H          8.30431        -7.80439         0.02694
H          9.62751        -5.51067        -0.11633
H         10.84643        -3.37694         0.16065
