         620
 CSIRO Nanostructure Databank - Neutral Graphene Oxide Data Set
C         23.18911        27.41554         1.95391
C         23.16076        28.74463         1.63842
C         23.01720        31.63189         0.84793
C         22.94994        32.97279         0.63877
C         22.92565        35.98261         0.27908
C         22.92338        37.36506         0.15313
C         22.90943        40.25021        -0.29280
C         22.91006        41.63117        -0.46048
C         22.94414        44.53803        -0.00149
C         22.92022        45.87278         0.14915
C         25.75854        24.64463         2.13342
C         24.54870        25.26037         2.19546
C         25.59462        27.31542         1.08192
C         24.32246        26.57203         1.57868
C         25.54654        28.78152         1.04673
C         24.31629        29.46054         1.16491
C         25.45549        31.61986         0.87340
C         24.27142        30.90353         0.93123
C         25.46378        33.04388         0.49365
C         24.14639        33.76893         0.31788
C         25.34277        35.97619         0.15313
C         24.13914        35.26536         0.29621
C         25.35913        37.38875        -0.07036
C         24.11704        38.09238        -0.03333
C         25.35347        40.23481        -0.27899
C         24.11725        39.53260        -0.19405
C         25.34566        41.65871        -0.40015
C         24.10679        42.35038        -0.48597
C         25.37456        44.52389        -0.53430
C         24.05403        43.83243        -0.76695
C         25.37576        45.98518        -0.61563
C         24.02434        46.72951        -0.32624
C         25.30862        48.79715        -0.03272
C         24.13171        48.12148         0.09132
C         28.38211        23.26824         2.05459
C         28.22867        24.62119         1.63170
C         26.95452        25.28730         1.62326
C         28.07726        27.38254         0.96038
C         26.89269        26.64176         1.23378
C         28.01730        28.81787         0.81814
C         26.78467        29.48323         0.95591
C         28.03940        31.70961         0.84584
C         26.74717        30.94587         1.08476
C         28.00027        33.15466         0.56255
C         26.70600        33.84943         0.74182
C         27.87060        35.99440         0.04539
C         26.64580        35.33626         0.41660
C         27.82450        37.29793        -0.70217
C         26.58470        38.08479        -0.31253
C         27.81030        40.24355        -0.53734
C         26.60194        39.51159        -0.35354
C         27.81822        41.66726        -0.52161
C         26.58844        42.37646        -0.45440
C         27.83070        44.52662        -0.38313
C         26.58675        43.82079        -0.44452
C         27.83169        45.97752         0.01649
C         26.59367        46.73798        -0.37146
C         27.83202        48.85023        -0.17945
C         26.56875        48.12077        -0.24926
C         27.86589        50.25001        -0.06882
C         30.76311        23.29292         1.50507
C         29.60505        22.64026         2.02136
C         30.64287        24.63295         1.06296
C         29.38962        25.31468         1.17451
C         30.49688        27.41111         0.44055
C         29.31530        26.70386         0.85856
C         30.44889        28.83615         0.29189
C         29.23728        29.54728         0.55218
C         30.40362        31.68433         0.10395
C         29.24096        30.95959         0.47545
C         30.39095        33.12532         0.05263
C         29.15770        33.84175         0.29973
C         30.36533        36.00009        -0.15591
C         29.16392        35.35517         0.46601
C         30.30938        37.43249        -0.40307
C         29.10991        38.08071        -0.54987
C         30.33682        40.29081        -0.59984
C         29.07754        39.53076        -0.94777
C         30.31413        41.70858        -0.59317
C         29.06188        42.40590        -0.57619
C         30.30699        44.56182        -0.47754
C         29.05742        43.83112        -0.47398
C         30.30259        46.00169        -0.44491
C         29.09465        46.71725        -0.33062
C         30.30807        48.86033        -0.37373
C         29.07093        48.13774        -0.30648
C         30.30711        50.27972        -0.14232
C         29.06969        50.94275        -0.01091
C         33.43710        20.66907         1.74897
C         32.25316        21.34284         1.95309
C         33.08493        23.22925         0.63033
C         32.03004        22.62143         1.38289
C         32.93886        24.57301         0.17018
C         31.77029        25.29202         0.46056
C         32.85912        27.41285        -0.26506
C         31.68771        26.70589         0.17758
C         32.83591        28.83441        -0.34071
C         31.62748        29.54926        -0.06382
C         32.81392        31.68951        -0.44006
C         31.60777        30.97372        -0.15790
C         32.79724        33.12513        -0.49809
C         31.56400        33.83255        -0.27552
C         32.71654        36.00668        -0.84069
C         31.50844        35.27724        -0.40053
C         32.75268        37.45658        -0.57179
C         31.57636        38.15804        -0.45986
C         32.78389        40.33391        -0.45059
C         31.56221        39.61117        -0.45721
C         32.78952        41.74049        -0.59181
C         31.54769        42.43823        -0.58511
C         32.78877        44.57629        -0.65163
C         31.53987        43.86873        -0.56942
C         32.79213        46.01742        -0.61756
C         31.54361        46.72143        -0.53661
C         32.78306        48.85677        -0.70684
C         31.52090        48.13679        -0.52703
C         32.79808        50.38786        -0.36558
C         31.54303        50.98541         0.07883
C         32.82912        52.82881         1.02806
C         31.61031        52.20378         0.76984
C         35.79866        19.09348         1.02353
C         35.65977        20.42308         0.61388
C         34.45056        21.20148         0.90391
C         35.25476        23.00568        -0.65149
C         34.27090        22.48207         0.36347
C         35.31721        24.51452        -0.74326
C         33.96459        25.20565        -0.74613
C         35.19211        27.40206        -1.01964
C         34.04109        26.70806        -0.60671
C         35.19582        28.82093        -1.03517
C         34.02542        29.53954        -0.68266
C         35.25113        31.70135        -0.77526
C         34.02026        30.98166        -0.66054
C         35.24645        33.13150        -0.76889
C         34.01363        33.81503        -0.72278
C         35.29860        36.00375        -0.87624
C         34.01452        35.26942        -0.95555
C         35.30400        37.41020        -0.72983
C         34.05676        38.10582        -0.38977
C         35.31992        40.33621        -0.59509
C         34.06306        39.63441        -0.29050
C         35.29404        41.73653        -0.77316
C         34.03654        42.45787        -0.71836
C         35.25150        44.64229        -1.15881
C         34.00677        43.86050        -0.78900
C         35.31105        45.96429        -0.39536
C         34.01957        46.73274        -0.56445
C         35.27395        48.86644        -0.46347
C         34.04743        48.13448        -0.56244
C         35.28635        50.25657        -0.16567
C         34.07340        50.96511         0.05710
C         35.33747        52.88166         0.96083
C         34.06728        52.22821         0.69730
C         35.40549        54.09078         1.66159
C         38.03876        18.92386         0.06694
C         36.95652        18.35565         0.74730
C         37.94397        20.29217        -0.33286
C         36.74248        21.03301        -0.09570
C         37.66274        22.97695        -1.25425
C         36.62139        22.38344        -0.54708
C         37.66506        24.42612        -1.73060
C         36.44020        25.15919        -1.15397
C         37.74717        27.33775        -1.42670
C         36.41168        26.62861        -1.38037
C         37.75304        28.83860        -1.31332
C         36.44145        29.58091        -1.25831
C         37.71075        31.70802        -0.83285
C         36.47261        31.01075        -0.90057
C         37.71974        33.13157        -0.79485
C         36.48884        33.84890        -0.86379
C         37.78615        35.98853        -1.19271
C         36.49567        35.26966        -0.91939
C         37.76011        37.44771        -0.80888
C         36.53700        38.14282        -0.69932
C         37.76635        40.28978        -0.76317
C         36.53195        39.59022        -0.64127
C         37.74631        41.70578        -0.91184
C         36.53838        42.43777        -0.94436
C         37.73332        44.60388        -1.04232
C         36.55092        43.87952        -1.02144
C         37.77190        46.05335        -0.96423
C         36.54871        46.76741        -0.74169
C         37.74917        48.91724        -0.66671
C         36.52522        48.16322        -0.61600
C         37.78105        50.26983        -0.31929
C         36.54341        50.94968         0.01779
C         37.81005        53.08667         0.45596
C         36.54949        52.25630         0.51163
C         37.83507        54.22623         1.45007
C         36.64008        54.71221         1.94695
C         40.46138        16.03048        -0.03101
C         39.32585        16.76705         0.08218
C         40.35169        18.80239        -0.83784
C         39.26923        18.18630        -0.21131
C         40.23830        20.15644        -1.43599
C         38.97166        20.87345        -1.13211
C         40.50603        23.20241        -1.95062
C         38.69981        22.12325        -1.68349
C         40.30304        24.53962        -1.49202
C         39.01549        25.18516        -1.46736
C         40.20794        27.27953        -0.86930
C         39.00840        26.56948        -1.20927
C         40.16293        28.70313        -0.43451
C         38.89915        29.50905        -0.63453
C         40.10940        31.66572        -0.28567
C         38.93823        30.98897        -0.64270
C         40.15492        33.09691        -0.32645
C         38.96824        33.83427        -0.62618
C         40.21592        35.95851        -0.53413
C         39.00562        35.24660        -0.71172
C         40.22947        37.40189        -0.64143
C         38.99944        38.13755        -0.74532
C         40.25952        40.25266        -0.79599
C         39.00935        39.56485        -0.76755
C         40.28921        41.68700        -0.88929
C         39.01866        42.39627        -1.16215
C         40.27103        44.64947        -1.02806
C         39.01558        43.90781        -1.22621
C         40.26513        46.03673        -1.13999
C         38.99331        46.73532        -1.13250
C         40.29814        48.94449        -0.96957
C         38.97190        48.21242        -1.10748
C         40.27646        50.27161        -0.30967
C         39.04982        50.95390        -0.09895
C         40.29190        52.88140         0.81674
C         39.07550        52.26573         0.44175
C         40.31031        54.22527         1.37281
C         39.09864        54.88384         1.70667
C         40.34957        56.83367         2.47482
C         39.14786        56.18309         2.27711
C         42.98349        15.96594        -0.48472
C         41.74457        16.70379        -0.21221
C         42.90622        18.71766        -1.32954
C         41.66898        18.16341        -0.71565
C         42.89437        20.22124        -1.68221
C         41.56406        20.93712        -1.77221
C         42.81280        23.10549        -1.27176
C         41.62018        22.41683        -1.65103
C         42.73660        24.50287        -1.10934
C         41.49864        25.22347        -1.10922
C         42.67660        27.36037        -0.50134
C         41.44767        26.62532        -0.81025
C         42.64383        28.80502        -0.21477
C         41.40328        29.45456        -0.19714
C         42.59317        31.66939         0.42945
C         41.29422        30.88394         0.15267
C         42.57330        33.12577         0.20423
C         41.39017        33.81330        -0.12604
C         42.66131        35.96937        -0.15699
C         41.41905        35.24905        -0.25639
C         42.68171        37.38513        -0.34917
C         41.45784        38.10034        -0.56415
C         42.72466        40.22720        -0.69822
C         41.47421        39.52971        -0.68124
C         42.72889        41.67974        -0.76413
C         41.47748        42.39181        -0.81331
C         42.76301        44.57033        -0.89477
C         41.47583        43.88754        -0.53379
C         42.76040        45.93578        -1.24803
C         41.54066        46.76938        -1.18322
C         42.75783        48.96030        -0.83627
C         41.56019        48.15886        -1.03186
C         42.72642        50.18700        -0.17689
C         41.49248        50.87656         0.08491
C         42.78032        52.85684         0.90016
C         41.51981        52.18679         0.64429
C         42.79381        54.21960         1.32561
C         41.55250        54.87715         1.61307
C         42.81978        56.87126         2.31293
C         41.57078        56.20236         2.13848
C         44.14078        16.64049        -0.73272
C         45.37024        18.79265        -1.11647
C         44.17584        18.05913        -0.98694
C         45.34529        20.24101        -1.23152
C         44.13047        20.95302        -1.39965
C         45.27477        23.09257        -1.03139
C         44.09364        22.39550        -1.21930
C         45.30182        24.56216        -0.96623
C         43.97069        25.29001        -1.00273
C         45.16450        27.37689        -0.38536
C         43.87288        26.68213        -0.54193
C         45.15142        28.83978        -0.13700
C         43.85531        29.54010        -0.00286
C         45.08878        31.65297         0.29453
C         43.87729        30.93643         0.27480
C         45.12875        33.08173         0.59532
C         43.79307        33.87389         0.47635
C         45.12118        35.99088         0.17749
C         43.87388        35.30085         0.14787
C         45.14981        37.39237        -0.06138
C         43.92022        38.08670        -0.30966
C         45.20967        40.16587        -0.70857
C         43.91923        39.49280        -0.56687
C         45.20803        41.67434        -0.81484
C         43.93183        42.39297        -0.75698
C         45.22799        44.49750        -1.04770
C         43.97951        43.83815        -0.87933
C         45.26803        45.87406        -1.35423
C         44.00818        46.44899        -1.66522
C         45.26087        48.87608        -0.85629
C         44.03455        48.52215        -1.33806
C         45.28439        50.03145         0.06228
C         43.98871        50.76523         0.31691
C         45.22669        52.92418         0.71657
C         44.01049        52.20176         0.67684
C         45.24859        54.28875         1.07027
C         44.02684        54.92305         1.46667
C         43.99929        56.26530         1.96587
C         47.80782        18.84623        -0.92803
C         46.64070        18.14043        -0.99160
C         47.79669        20.27738        -0.94467
C         46.58066        20.95176        -1.07379
C         47.74201        23.11037        -0.44193
C         46.61966        22.45064        -1.22066
C         47.64791        24.48402        -0.05252
C         46.46859        25.19304        -0.31257
C         47.51793        27.29344         0.71443
C         46.31916        26.57704         0.13655
C         47.52080        28.78565         0.68054
C         46.38974        29.48033         0.37008
C         47.63827        31.70903         0.43097
C         46.38274        30.95029         0.18192
C         47.60805        33.17915         0.54521
C         46.38651        33.85981         0.46246
C         47.61680        35.98093         0.38783
C         46.36890        35.27694         0.37193
C         47.64025        37.40791         0.20599
C         46.41549        38.10341        -0.03359
C         47.67046        40.23860        -0.27036
C         46.44507        39.48842        -0.29981
C         47.68190        41.63229        -0.36834
C         46.41775        42.43507        -0.33200
C         47.76570        44.52044        -0.90089
C         46.51344        43.71722        -1.16926
C         47.73868        45.96179        -1.07766
C         46.52097        46.63547        -1.31480
C         47.79788        48.83902        -0.97528
C         46.50140        48.13965        -1.27869
C         47.81225        50.18844        -0.32954
C         46.56114        50.81022         0.16057
C         47.69998        53.12218        -0.06460
C         46.45677        52.30154         0.15813
C         47.64857        54.48922         0.49493
C         46.50760        55.01080         1.01024
C         50.28277        20.39735        -0.83992
C         49.02804        21.02515        -0.75583
C         50.15707        23.05416         0.08661
C         48.96976        22.40483        -0.37012
C         50.04524        24.37733         0.73745
C         48.80800        25.17913         0.52357
C         49.98957        27.28281         1.26091
C         48.78893        26.53323         0.79640
C         50.02310        28.75078         1.14520
C         48.75998        29.48828         1.11901
C         50.07733        31.73634         1.02809
C         48.79778        31.00155         1.05157
C         50.08559        33.10291         0.82255
C         48.84458        33.86634         0.64068
C         50.11683        36.02444         0.82268
C         48.83731        35.26896         0.56662
C         50.14022        37.41699         0.22363
C         48.89398        38.11955         0.12323
C         50.15566        40.22795        -0.21436
C         48.91367        39.51549        -0.11252
C         50.18876        41.64621        -0.32030
C         48.92403        42.42036        -0.07185
C         50.20921        44.51115        -0.61970
C         48.93425        43.83698        -0.61602
C         50.21852        45.94306        -0.69789
C         49.00017        46.66498        -0.87397
C         50.23768        48.78852        -0.54203
C         49.04329        48.07390        -0.79929
C         50.24052        50.24609        -0.42228
C         49.05554        50.97333        -0.46199
C         50.25725        53.01457         0.26706
C         49.05436        52.49029        -0.46890
C         51.44372        21.07908        -0.51702
C         52.63803        23.10196         0.33894
C         51.40259        22.40254        -0.00901
C         52.61182        24.39808         0.84083
C         51.33702        25.06584         1.18671
C         52.56654        27.35098         1.31834
C         51.31440        26.55572         1.45337
C         52.56599        28.73736         1.28742
C         51.27362        29.45886         1.44224
C         52.60415        31.67271         1.08153
C         51.31447        30.99602         1.34668
C         52.58870        33.04832         0.87330
C         51.35485        33.81669         0.78802
C         52.60614        35.87799         0.22786
C         51.35278        35.18943         0.59377
C         52.61152        37.33229        -0.12251
C         51.33860        38.08214        -0.03028
C         52.62324        40.19220        -0.37559
C         51.37866        39.49831        -0.22367
C         52.62805        41.58924        -0.52966
C         51.40726        42.32652        -0.48078
C         52.66458        44.49210        -0.52938
C         51.41641        43.78631        -0.55481
C         52.67573        45.91894        -0.44295
C         51.44825        46.64659        -0.53498
C         52.70031        48.77774        -0.29649
C         51.46063        48.07325        -0.45014
C         52.69966        50.20731        -0.15710
C         51.48001        50.92652        -0.15139
C         51.40616        52.29888         0.30038
C         55.09998        23.08260         0.37724
C         53.90766        22.45235         0.14003
C         55.15186        24.43339         0.82530
C         53.87215        25.07877         1.17435
C         55.07520        27.37263         1.20693
C         53.83669        26.61542         1.40180
C         55.04711        28.75706         1.20029
C         53.80625        29.49791         1.23413
C         55.10453        31.63210         1.02398
C         53.83684        30.91652         1.14925
C         55.13176        33.05123         0.87798
C         53.86494        33.78421         0.96024
C         55.14700        35.92608         0.32944
C         53.88152        35.26551         0.68156
C         55.13207        37.31607        -0.01343
C         53.89842        38.06232        -0.13038
C         55.11860        40.16316        -0.48612
C         53.88275        39.44799        -0.33350
C         55.16388        41.56210        -0.56282
C         53.89962        42.32008        -0.90695
C         55.09427        44.46991        -0.30286
C         53.89547        43.78269        -0.51793
C         55.12681        45.89400        -0.19872
C         53.91188        46.61995        -0.30801
C         55.16340        48.76176        -0.15665
C         53.92342        48.05846        -0.25012
C         55.13637        50.18393        -0.05013
C         53.95366        50.87710        -0.02467
C         57.63442        24.50553         0.88610
C         56.36295        25.14133         0.93065
C         57.63215        27.34671         0.94091
C         56.31994        26.62160         0.92724
C         57.63510        28.77698         1.35833
C         56.32191        29.50589         1.36518
C         57.58330        31.63882         1.00879
C         56.34039        30.95413         1.11423
C         57.58329        33.05553         0.78467
C         56.33946        33.76559         0.71745
C         57.59408        35.87836         0.23924
C         56.34682        35.19728         0.43987
C         57.60269        37.28195        -0.05268
C         56.37125        37.97295        -0.20760
C         57.70300        40.16380        -0.52539
C         56.36011        39.38873        -0.58811
C         57.63258        41.60810        -0.27933
C         56.39205        42.26351        -0.38651
C         57.63988        44.46210         0.10116
C         56.32815        43.70065        -0.05157
C         57.61510        45.91646        -0.09349
C         56.38430        46.60921        -0.12928
C         57.65517        48.71337        -0.24516
C         56.39910        48.03936        -0.17212
C         58.83931        25.18686         0.97708
C         60.08022        27.34116         1.15073
C         58.89810        26.59968         1.05711
C         60.07725        28.75014         1.10324
C         58.90108        29.50728         1.16035
C         60.04300        31.68355         1.00585
C         58.84505        30.93739         1.07896
C         60.03127        33.04732         0.79966
C         58.81710        33.75669         0.64891
C         60.04086        35.87785         0.20320
C         58.82317        35.17273         0.36722
C         60.05786        37.24241         0.00735
C         58.85837        37.98762        -0.09478
C         60.05075        40.15720         0.19880
C         58.90286        39.41795        -0.13756
C         60.04976        41.54720         0.17928
C         58.86723        42.30043        -0.02998
C         60.08665        44.47694        -0.22563
C         58.90413        43.73373        -0.05849
C         60.06895        45.86650        -0.27582
C         58.85246        46.60049        -0.22238
C         58.84167        48.02334        -0.30099
O         48.49803        30.35049         2.32221
O         34.14356        38.80128         0.91416
O         52.60364        36.28216        -1.18949
O         51.27036        30.32030         2.64545
O         46.47375        26.74127         1.59658
O         50.51236        24.32625         2.13292
O         26.64809        34.77359         1.85442
O         24.49673        46.49846        -1.68474
O         39.50277        22.61565        -2.71626
O         39.59085        48.89117        -2.25897
O         24.67931        26.64692         0.16475
O         39.16902        28.90160         0.66994
O         33.23200        35.63739        -2.17368
O         43.99786        47.62632        -2.41232
O         32.77591        49.88166        -1.73558
O         44.84134        25.20673        -2.21020
O         47.46254        50.20034         1.13573
O         37.23208        29.43659        -2.52081
O         40.72475        20.34783        -2.79601
O         45.38587        40.87389        -2.00775
O         57.12712        39.71172        -1.79307
O         46.74013        52.89238        -1.16786
O         41.94928        17.84056         0.69257
O         44.61071        49.87579         1.34813
O         37.04181        26.96372        -2.66429
O         44.37690        33.49508         1.77610
O         47.26271        48.81984        -2.34561
O         56.87303        43.99852         1.28054
O         39.04321        43.08728        -2.47033
O         41.73557        31.20276         1.51602
O         24.89973        33.25167        -0.84686
O         50.49818        26.88404         2.60750
O         27.54613        31.44097         2.22378
O         45.43484        28.28781        -1.50259
O         47.29231        31.30800        -0.94923
O         42.93933        19.17651        -2.70619
O         56.94350        27.13844        -0.33928
O         53.87777        25.66653         2.52225
O         53.83257        34.79056         2.06123
O         56.98942        29.09053         2.63337
O         33.43870        24.98750        -2.10060
H         34.07625        25.37730        -2.73589
O         29.03190        39.51705        -2.43977
H         28.95384        40.44962        -2.73743
O         35.11590        44.98960        -2.56549
H         35.24122        44.17662        -3.09778
O         27.70660        37.00561        -2.14367
H         28.06044        37.79176        -2.62478
O         37.91065        35.99701        -2.67545
H         37.08090        36.37724        -3.03626
O         35.42630        45.62006         1.01881
H         35.48022        46.45341         1.53148
O         23.73264        43.95309        -2.19111
H         23.83509        44.91173        -2.41485
O         34.76045        22.53191        -1.94720
H         35.37739        22.86237        -2.63647
O         37.44520        24.38309        -3.15795
H         37.40985        25.32127        -3.46823
O         50.12541        36.29472         2.28048
H         50.10041        35.42988         2.74444
O         37.77838        53.74601        -0.87118
H         36.93837        54.25028        -0.92202
O         27.80043        45.95453         1.51044
H         28.60069        45.46814         1.80472
O         46.96447        22.71631        -2.63976
H         46.17818        22.49072        -3.18199
O         48.88693        42.64115         1.41489
H         49.07994        41.77637         1.83911
O         41.36690        43.96563         0.94489
H         42.19626        43.59491         1.31708
O         53.89293        42.35471        -2.38413
H         53.95310        41.42837        -2.70242
O         49.25314        52.89316        -1.86411
H         48.38156        52.78952        -2.31094
O         29.30907        35.56536         1.91943
H         28.46612        35.24944         2.32988
O         46.15843        42.80923         1.04844
H         47.03512        43.00091         1.46816
O         46.60798        43.29842        -2.55872
H         46.61110        44.09967        -3.12292
H         22.35298        26.96135         2.50601
H         22.25946        29.32045         1.89190
H         22.08139        31.08315         1.02336
H         21.97402        33.47529         0.69946
H         21.96887        35.45358         0.38118
H         21.95784        37.88630         0.18453
H         21.94624        39.72462        -0.27452
H         21.95223        42.15222        -0.59184
H         22.11042        43.94019         0.39568
H         22.10364        46.35771         0.70654
H         25.85370        23.64566         2.58072
H         23.71272        24.78085         2.72650
H         25.32248        49.86405         0.22758
H         23.24169        48.62074         0.50185
H         27.51272        22.70486         2.41846
H         26.93365        50.82533        -0.00007
H         29.67168        21.59736         2.35919
H         29.04747        52.03358         0.11565
H         33.57492        19.69025         2.22645
H         31.48046        20.87917         2.58078
H         32.81203        53.80126         1.53698
H         30.68700        52.68928         1.11485
H         34.98486        18.58787         1.55944
H         34.49344        54.55358         2.05947
H         36.99275        17.31014         1.08012
H         36.62737        55.59593         2.59989
H         40.43379        14.93328         0.03295
H         38.38220        16.24553         0.29206
H         40.36603        57.85212         2.88856
H         38.21546        56.70345         2.53359
H         42.97700        14.86945        -0.40883
H         42.82132        57.89379         2.71733
H         45.07491        16.06665        -0.80689
H         44.93917        56.81672         2.09995
H         48.75720        18.30428        -0.82868
H         46.68391        17.04442        -0.95148
H         48.56198        55.10048         0.49222
H         46.53734        56.04290         1.38591
H         50.36121        19.35771        -1.18366
H         50.24782        54.04161         0.65855
H         52.39749        20.54929        -0.62400
H         52.29659        52.74913         0.76223
H         56.03541        22.54541         0.17199
H         53.93924        21.42035        -0.22784
H         56.07551        50.74550         0.03603
H         53.97934        51.97136         0.06207
H         57.66957        23.40804         0.84543
H         57.68345        49.80953        -0.29657
H         59.77880        24.61551         0.99324
H         61.04378        26.81266         1.18660
H         61.05049        29.25510         1.03359
H         61.01051        31.17447         1.10273
H         60.99342        33.57075         0.74297
H         61.00115        35.35033         0.25485
H         61.02587        37.75146        -0.08870
H         60.97815        39.63800         0.47585
H         60.98462        42.07413         0.41245
H         61.04869        43.95580        -0.32812
H         61.01306        46.41733        -0.39196
H         59.79493        48.56272        -0.39392
