         651
 CSIRO Nanostructure Databank - Neutral Graphene Oxide Data Set
C          6.02346        31.49682         1.58894
C          6.01344        32.82435         1.87073
C          8.39912        27.31553         0.45217
C          8.41337        28.65263         0.80644
C          7.21170        29.38806         1.11419
C          8.51675        31.33421         1.94306
C          7.23105        30.69970         1.54394
C          8.56527        32.78931         2.31187
C          7.22539        33.57273         2.27062
C          8.52377        35.69164         2.20282
C          7.30875        35.00655         2.07956
C          8.53415        37.11669         2.20418
C         10.82579        23.19901        -0.92112
C         10.77541        24.56729        -0.71494
C          9.58350        25.29267        -0.36257
C         10.91083        27.23203         0.51034
C          9.59531        26.60083         0.10058
C         10.95361        28.75698         0.45220
C          9.63712        29.50326         0.53157
C         11.02745        31.48645         1.38799
C          9.78461        30.68445         1.49389
C         11.01967        32.82560         1.77794
C          9.80806        33.54498         2.10934
C         10.99694        35.72507         2.12384
C          9.78952        34.96113         2.20322
C         10.97756        37.13258         2.09912
C          9.72752        37.85814         2.17489
C         10.93013        40.02547         2.03557
C          9.73568        39.28303         2.15101
C         10.94588        41.44906         1.93170
C         13.23789        18.99676        -1.71916
C         13.20946        20.38819        -1.72076
C         12.03624        21.12643        -1.41168
C         13.29299        23.26988        -1.37239
C         12.04386        22.51304        -1.24592
C         13.29186        24.63147        -1.17975
C         12.03207        25.32409        -0.87659
C         13.42687        27.30113         0.12542
C         12.10040        26.69472        -0.28095
C         13.34132        28.79869        -0.25748
C         12.12350        29.45718         0.37948
C         13.38270        31.56588         0.67414
C         12.19490        30.86080         0.80264
C         13.55848        32.86966         1.32747
C         12.31008        33.52257         1.92809
C         13.54606        35.75914         1.80409
C         12.29665        35.00444         2.13654
C         13.39337        37.19496         1.38794
C         12.18332        37.90114         1.93536
C         13.44033        40.02341         1.71179
C         12.16557        39.28317         1.92401
C         13.42772        41.50724         1.67028
C         12.12578        42.21065         1.74733
C         13.36822        44.34572         1.41956
C         12.14680        43.59974         1.59008
C         13.34376        45.70673         1.19094
C         15.55612        14.88369        -0.39386
C         15.56667        16.22880        -0.71983
C         14.40462        16.94401        -1.16179
C         15.76482        18.89262        -1.95551
C         14.44361        18.22115        -1.71516
C         15.72771        20.38559        -2.15289
C         14.44440        21.14849        -2.02553
C         15.75885        23.23406        -1.74408
C         14.53068        22.58446        -1.71314
C         15.81292        24.67351        -1.50589
C         14.52207        25.47756        -1.43608
C         15.87655        27.39802        -0.41279
C         14.62179        26.66684        -0.51171
C         15.86446        28.88507        -0.30205
C         14.65051        29.51386        -0.08635
C         15.79274        31.76878        -0.23139
C         14.54097        30.97864        -0.03765
C         15.85131        33.14970         0.30189
C         14.73942        33.70407         0.97974
C         15.89239        35.86216         0.93219
C         14.74660        35.08381         1.23546
C         15.83168        37.31242         1.08944
C         14.70063        37.91863         1.54563
C         15.99890        40.04595         2.04354
C         14.68277        39.27889         2.17731
C         15.97043        41.60862         1.99311
C         14.67714        42.28854         1.84560
C         15.90112        44.32162         1.27291
C         14.65822        43.63803         1.54284
C         15.79550        45.71526         0.76443
C         14.61056        46.52051         1.25080
C         15.67386        48.59376         0.27936
C         14.54973        47.90863         0.66094
C         15.68078        50.00769         0.02137
C         18.02558        10.67434         0.68388
C         18.01043        12.03925         0.31056
C         16.77988        12.78330         0.11516
C         18.03447        14.81662        -0.46524
C         16.77578        14.14202        -0.16990
C         18.08063        16.15798        -0.76069
C         16.84960        16.96754        -0.66946
C         17.90602        18.79337        -2.15000
C         16.89190        18.39490        -1.08873
C         18.21617        20.31673        -2.15483
C         17.02735        21.08759        -2.05075
C         18.26446        23.16023        -1.85706
C         17.01930        22.50010        -1.92125
C         18.32390        24.59559        -1.38300
C         17.00958        25.31929        -1.40670
C         18.25491        27.58728        -1.35617
C         17.10515        26.72806        -0.92022
C         18.42978        28.93121        -0.64889
C         17.08780        29.63276        -0.48007
C         18.22831        31.78923        -0.70161
C         17.06456        31.03217        -0.43267
C         18.05870        33.29477        -0.82986
C         17.03192        33.88188         0.12180
C         18.38924        35.93986         0.62270
C         17.11343        35.22354         0.57895
C         18.64770        36.99659         1.49662
C         16.88317        38.24993         0.58232
C         18.43168        40.06954         1.49063
C         17.17056        39.41599         1.46496
C         18.39778        41.50801         1.42651
C         17.18754        42.24448         1.49491
C         18.32056        44.26895         0.49973
C         17.10290        43.63065         1.14991
C         18.32472        45.78412         0.56686
C         17.01941        46.42696         0.28953
C         18.17853        48.69143         0.42631
C         16.98640        47.90385        -0.05834
C         18.14711        50.03114         0.24176
C         16.88535        50.70699        -0.09883
C         18.10920        52.78951        -0.60182
C         16.90673        52.09604        -0.39564
C         18.12779        54.14460        -0.95512
C         20.46382         6.42008         1.51387
C         20.46875         7.84120         1.36856
C         19.25972         8.55889         1.11774
C         20.48184        10.66423         0.86839
C         19.25827         9.96514         0.88569
C         20.51826        12.14251         0.63017
C         19.24000        12.67660         0.06245
C         20.54997        14.58500        -1.01835
C         19.24401        13.97710        -0.60678
C         20.56729        16.07756        -1.18975
C         19.23637        16.74329        -1.42903
C         20.98411        18.87732        -2.39884
C         19.03608        17.82457        -2.24547
C         20.80664        20.35912        -2.38046
C         19.46221        21.00985        -2.21608
C         20.72237        23.19727        -1.86870
C         19.47646        22.44051        -2.01899
C         20.75684        24.66532        -2.04501
C         19.45391        25.40274        -2.02836
C         20.77378        27.60810        -1.73179
C         19.48245        26.89716        -1.86243
C         20.75679        29.03357        -1.63568
C         19.54211        29.75960        -1.30662
C         20.37896        32.11531        -1.75983
C         19.38140        31.17642        -1.26173
C         20.58819        33.37964        -1.24323
C         19.35975        34.09871        -0.84955
C         20.82869        36.03802        -0.07312
C         19.46908        35.48741        -0.28429
C         20.93213        37.18331         0.75417
C         19.77317        37.90748         1.29662
C         20.91358        40.16835         1.45278
C         19.71047        39.33081         1.44664
C         20.89618        41.57361         1.26722
C         19.62321        42.25749         1.19827
C         20.79509        44.40524         1.25804
C         19.58508        43.61726         0.98569
C         20.71136        45.89564         1.21929
C         19.42485        46.53033         0.83803
C         20.68724        48.72404         0.67999
C         19.38227        48.02896         1.04384
C         20.67460        50.08756         0.42838
C         19.37562        50.88307         0.47353
C         20.64152        52.83138        -0.52821
C         19.39629        51.98646        -0.58727
C         20.59541        54.12042        -0.99872
C         19.34685        54.82711        -1.22658
C         20.59830        56.87173        -1.87593
C         19.37431        56.16560        -1.64265
C         20.52741        58.34032        -2.27454
C         22.86982         3.56908         1.88146
C         21.67571         4.26983         1.72701
C         22.90861         6.38142         1.83004
C         21.67131         5.69462         1.69797
C         22.93104         7.87270         1.98513
C         21.68238         8.54408         1.49821
C         22.97321        10.46231         0.60632
C         21.73534        10.03123         1.39486
C         23.01414        11.83168         0.00274
C         21.77853        12.65569        -0.05863
C         23.13130        14.49017        -1.00514
C         21.81837        13.87216        -0.66437
C         23.18313        15.96497        -1.34274
C         21.89127        16.75112        -1.38034
C         23.09990        18.89287        -1.15570
C         21.98258        18.17559        -1.81152
C         23.10719        20.37117        -1.23095
C         22.01539        21.11827        -1.91876
C         23.16475        23.29619        -1.52230
C         21.93957        22.57031        -1.65257
C         23.21758        24.70853        -1.60328
C         22.00476        25.42655        -1.80926
C         23.24757        27.52157        -1.50253
C         21.98862        26.84817        -1.72167
C         23.24335        28.93867        -1.47199
C         22.06716        29.66607        -1.68365
C         23.28476        31.86180        -1.56698
C         22.23576        31.06431        -1.96127
C         23.19136        33.34197        -1.61455
C         21.87591        34.12595        -1.37325
C         23.26458        36.04359        -0.39174
C         21.99229        35.44016        -0.62816
C         23.38744        37.16204         0.46435
C         22.22670        37.56157         1.11931
C         23.39452        40.21998         1.16490
C         22.21959        39.62465         1.61919
C         23.37844        41.63727         1.01858
C         22.11821        42.30475         1.13247
C         23.28571        44.48144         1.13703
C         22.11067        43.73987         1.14772
C         23.21831        45.94981         1.54531
C         21.96341        46.65089         1.09113
C         23.17640        48.77721         0.81752
C         21.94305        48.02172         0.81661
C         23.13370        50.16254         0.61655
C         21.90448        50.81156         0.30764
C         23.06693        52.94243        -0.10009
C         21.89594        52.19711        -0.12491
C         23.04937        54.34317        -0.58842
C         21.87569        54.74811        -1.46681
C         23.08232        56.90353        -2.05692
C         21.80842        56.23497        -1.71231
C         23.09441        58.40906        -2.20808
C         21.81760        58.88306        -2.85796
C         23.10180        60.42595        -4.24804
C         21.84964        59.85278        -3.80683
C         24.08703         4.24406         1.98271
C         25.37276         6.36639         1.95465
C         24.12977         5.66533         1.94314
C         25.43549         7.74864         1.63206
C         24.21427         8.49331         1.47402
C         25.48442        10.44081         0.68629
C         24.24852         9.78768         0.96143
C         25.51994        11.80749         0.24609
C         24.32419        12.50757        -0.09436
C         25.57545        14.59937        -0.37697
C         24.36477        13.86248        -0.46660
C         25.56163        16.03593        -0.55074
C         24.42357        16.69833        -0.98084
C         25.66883        18.95800        -0.82803
C         24.41890        18.17623        -1.10809
C         25.60218        20.42566        -0.51972
C         24.35635        21.14200        -0.90697
C         25.75197        23.24141        -1.40299
C         24.42195        22.53317        -1.43692
C         25.72523        24.71008        -1.35424
C         24.49006        25.40138        -1.44982
C         25.72975        27.54924        -1.24431
C         24.47800        26.82324        -1.37623
C         25.75316        28.93199        -1.20903
C         24.48507        29.66250        -1.13335
C         25.80597        31.92217        -0.92561
C         24.48094        31.16918        -1.02787
C         25.78488        33.30240        -1.56175
C         24.50832        34.06383        -1.47298
C         25.77898        36.15452        -0.75802
C         24.55600        35.27786        -0.56843
C         25.92267        37.31364         0.19764
C         24.67109        37.88219         0.90747
C         25.87939        40.19881         0.95729
C         24.58860        39.44237         0.62026
C         25.86876        41.68416         0.98649
C         24.60234        42.37674         0.97497
C         25.76546        44.53067         1.22871
C         24.56686        43.81027         1.06984
C         25.72853        45.97578         1.44724
C         24.47118        46.72692         1.24913
C         25.70418        48.85453         0.96700
C         24.44823        48.08603         1.02785
C         25.66784        50.26920         0.80922
C         24.34505        50.98227         1.01874
C         25.61954        53.11773         0.17484
C         24.31221        52.41793         0.49224
C         25.64376        54.31008        -0.75795
C         24.33699        55.06124        -0.81661
C         25.64451        57.05215        -1.74241
C         24.37725        56.26647        -1.69914
C         25.57619        58.28401        -2.51708
C         24.38298        58.87352        -2.85896
C         24.30490        59.97787        -3.78558
C         26.66507         8.39696         1.37917
C         27.94778        10.41831         0.76600
C         26.71286         9.74446         0.94818
C         27.99728        11.78431         0.41784
C         26.76617        12.49134         0.16901
C         28.04754        14.57045        -0.05736
C         26.79842        13.89810        -0.07687
C         28.07983        16.03546        -0.00099
C         26.78710        16.79948        -0.18806
C         28.11014        18.93359        -0.34523
C         26.89754        18.23761        -0.46098
C         28.15419        20.34908        -0.50160
C         26.91241        21.17354        -0.30786
C         28.17694        23.20749        -0.89881
C         26.96717        22.53978        -0.94485
C         28.19839        24.66468        -1.01574
C         26.96434        25.38782        -1.16388
C         28.19043        27.48829        -0.86963
C         26.98552        26.81311        -1.12450
C         28.16889        28.97021        -0.58730
C         27.07868        29.64520        -1.41032
C         28.27795        31.78531        -1.03111
C         27.08012        31.13554        -1.18084
C         28.35093        33.26369        -1.18274
C         27.09950        34.03352        -1.46209
C         28.34996        36.16091        -0.92249
C         27.06172        35.50742        -1.21038
C         28.29314        37.67479        -0.84343
C         27.19526        38.09376         0.14374
C         28.34515        40.38483         0.35404
C         27.20398        39.51449         0.65729
C         28.33081        41.72742         0.75441
C         27.08349        42.37296         1.10387
C         28.30780        44.57988         1.13833
C         27.06293        43.82527         1.57079
C         28.32388        46.04679         0.90592
C         27.03209        46.75276         1.30567
C         28.19331        48.99715         1.35788
C         26.93926        48.19246         1.05631
C         28.14520        50.33526         0.68870
C         26.89436        51.00084         0.59861
C         28.08915        53.06155        -0.17800
C         26.88237        52.36858         0.20907
C         28.08524        54.43036        -0.51119
C         26.82062        55.24327        -0.41107
C         26.79687        56.51174        -1.25049
C         29.23397        12.48186         0.35276
C         30.51141        14.60969         0.26098
C         29.28080        13.87158         0.13567
C         30.58826        15.99988         0.11352
C         29.36780        16.72098        -0.41602
C         30.54592        18.88161         0.04415
C         29.37002        18.21172        -0.16117
C         30.54831        20.38300         0.23728
C         29.36307        21.07777        -0.39741
C         30.64217        23.21274        -0.26921
C         29.37446        22.46799        -0.57125
C         30.70769        24.62063        -0.87826
C         29.39559        25.36017        -0.81148
C         30.62635        27.47677        -0.40575
C         29.40524        26.77823        -0.71499
C         30.68105        28.90714        -0.41474
C         29.51267        29.65474        -0.71482
C         30.72791        31.80016        -0.60714
C         29.53936        31.07560        -0.82246
C         30.75525        33.24626        -0.56255
C         29.57630        33.99316        -0.79863
C         30.80362        36.17847        -0.69394
C         29.52310        35.43901        -0.79423
C         30.78541        37.64220        -0.41890
C         29.59618        38.30786        -0.42374
C         30.82506        40.54869        -0.24875
C         29.52477        39.77943        -0.28150
C         30.75984        41.90389         0.33263
C         29.58481        42.47846         0.73923
C         30.85872        44.66629         1.13152
C         29.60357        43.84966         1.40045
C         30.84887        46.10352         1.48891
C         29.50686        46.81464         1.67577
C         30.63877        48.90361         0.71027
C         29.48034        48.23192         1.19649
C         30.56128        50.26152         0.27960
C         29.34189        50.97938         0.25664
C         29.30181        52.32092        -0.18658
C         31.77222        16.73698         0.30678
C         33.00474        18.87710         0.31986
C         31.80837        18.16081         0.21676
C         33.06550        20.30613         0.11271
C         31.87282        21.01650        -0.06382
C         33.12838        23.18008        -0.17480
C         31.91140        22.40746        -0.63294
C         33.07428        24.58445         0.02511
C         31.87013        25.34935        -0.24567
C         32.89830        27.44817         0.60785
C         31.80504        26.72682        -0.08037
C         33.00190        28.91845         0.43597
C         31.91573        29.59284        -0.14322
C         33.13973        31.76458         0.17383
C         32.03749        31.04089        -0.55420
C         33.13599        33.19790         0.17936
C         31.98721        33.91658        -0.22274
C         33.16271        36.15001         0.23332
C         32.03807        35.39030        -0.37883
C         33.24121        37.62443         0.04334
C         32.04579        38.34837        -0.17943
C         33.28336        40.42390         0.20309
C         32.08118        39.76526        -0.12268
C         33.32545        41.89948         0.21868
C         32.02240        42.66138         0.29991
C         33.32783        44.72691         0.73896
C         32.03484        44.06004         0.76402
C         33.36276        46.22921         0.64620
C         32.08464        46.90125         1.12732
C         31.90243        48.28129         0.70456
C         34.30037        21.02290         0.08659
C         35.52350        23.17518         0.33051
C         34.33069        22.45168         0.07134
C         35.50012        24.57409         0.52937
C         34.24125        25.25331         0.48113
C         35.40887        27.36980         1.30666
C         34.14904        26.64124         0.94766
C         35.37840        28.89615         1.33953
C         34.18350        29.62018         0.83290
C         35.38530        31.77928         1.24757
C         34.22453        31.03820         0.69456
C         35.48916        33.23297         0.97923
C         34.35246        33.89297         0.55021
C         35.68710        36.05429         0.53444
C         34.36890        35.37080         0.60205
C         35.71974        37.54735         0.44247
C         34.44310        38.29474         0.33968
C         35.71229        40.38898         0.80475
C         34.47391        39.70185         0.43948
C         35.68728        41.82651         0.93474
C         34.55705        42.57353         0.67621
C         34.50446        44.01470         0.75419
C         36.69958        25.31102         0.78506
C         37.89381        27.42556         1.20872
C         36.70960        26.68976         1.07901
C         37.91348        28.84859         1.42701
C         36.68211        29.57151         1.39420
C         37.94493        31.74682         1.76810
C         36.65043        31.01062         1.60211
C         37.99491        33.15426         1.26948
C         36.74763        33.93915         1.18073
C         38.11360        36.03370         1.16706
C         36.86886        35.30540         0.98490
C         38.06784        37.48705         1.21529
C         36.93865        38.23477         0.93006
C         36.87245        39.66400         1.05843
C         39.14183        29.52378         1.60676
C         40.49990        31.72594         1.72878
C         39.22348        30.96822         1.84148
C         40.53565        33.06985         1.62146
C         39.32927        33.87055         1.27195
C         39.29041        35.33395         1.38313
O         26.52651        46.38996         2.63658
O         13.56059        40.67018         0.40874
O         23.30386        14.96000        -2.39126
O         19.15599        35.29863        -1.70467
O         13.26280        32.82129         2.77222
O         27.35504        16.52362         1.16459
O         24.66640        20.90497         0.50495
O         14.84149        31.61055        -1.35147
O         18.52060        27.57835        -2.77037
O         19.76332        13.88901        -2.02699
O         25.22614        22.63815        -2.66536
O         33.10687        26.89883         1.94400
O         21.24786        16.70554        -0.04183
O         27.00510        37.07986         1.17174
O          9.31955        30.47415         2.84523
O         30.05730        40.44181        -1.48964
O         17.31036        38.18855        -0.56266
O         33.43271        35.83707         1.65240
O         35.66923        31.41874         2.63665
O         22.32870        38.38302         2.23946
O         11.08920        26.90813         1.86945
O         32.73396        42.50733        -0.98274
O         20.03676        18.18015        -3.15260
O         31.78333        46.54336         2.53799
O         35.26061        28.05932         2.56554
O         19.97967        24.99050        -3.29911
O         26.20851        36.31804        -2.11756
O         27.96341        33.65943        -2.57852
O         35.93637        36.71431        -0.76046
O         23.83992        56.13012        -3.07549
O         25.15946        33.82239        -2.76963
O         16.22247        40.84858         3.23441
O         14.99029        20.79165        -3.34946
O         24.27178        30.38053         0.19113
O         16.92133        26.76277         0.54687
O         26.68690        39.62110         2.02832
O         16.94652        18.14004         0.30963
O         11.87602        26.57946        -1.69336
O         23.56975        55.30785         0.39126
O         21.77103        20.91176        -3.35439
O         22.46653        34.00627        -2.69696
O         31.76379        35.82634        -1.75841
O         16.12591        45.71940        -0.66856
O         24.95839        53.33261         1.45279
O          7.84255        33.11386         3.52718
O         20.61350        45.18497         2.54711
O         22.64216        19.67034        -0.01256
O         38.75063        33.31640         0.01722
O         21.23640        31.63478        -2.74751
O         22.82680        10.60428        -0.83274
O          9.44023        30.05900        -0.73915
O         13.22650        35.46503         3.18408
O         16.74205        18.52857        -3.12172
O         25.26483        18.66115        -2.22651
O         38.50935        31.47781         3.08056
O         27.05825        43.75728         3.06230
H         26.90530        44.68967         3.36309
O         18.72297        24.53262         0.03497
H         18.01252        24.93399         0.58534
O         30.66460        23.40950         1.16784
H         30.54965        22.52390         1.59802
O         24.72485        34.65419         0.74943
H         24.80787        35.36093         1.42897
O         19.47452        51.28449        -1.86242
H         19.60376        51.95111        -2.56977
O         13.12692        28.82722        -1.69554
H         13.02182        29.76243        -1.97445
O         18.91241        28.62956         0.69732
H         18.23563        28.04133         1.11552
O         19.29170        51.50485         1.77368
H         19.26543        50.78809         2.44386
O         17.46364        33.44063        -2.15062
H         17.66867        34.35620        -2.45529
O         28.04654        49.24455         2.81010
H         28.14267        48.36075         3.24810
O         24.23063        51.07094         2.47429
H         24.68740        51.90467         2.73938
O         18.22270        43.92614        -0.92122
H         17.39432        44.35291        -1.25035
O         23.08778        58.92036        -0.84010
H         23.14921        59.89755        -0.88421
O         20.58954        12.77025         1.97992
H         21.05746        12.12942         2.57516
O         27.78687        29.12026         0.81312
H         28.45270        28.65718         1.36413
O         29.15470        46.73369         3.07559
H         30.00467        46.74032         3.57360
O         21.96416        10.57146         2.76327
H         22.29276         9.81947         3.32426
O         29.70375        43.59022         2.84434
H         28.77612        43.49580         3.19492
O         24.80763        37.64269         2.30463
H         25.67752        38.02279         2.58211
O         14.35360        26.10112        -2.75395
H         13.48346        26.57799        -2.73264
O         17.89145        37.15597         2.62262
H         18.22022        37.91296         3.14847
O         30.34374        20.63288         1.69052
H         29.40800        20.40797         1.89430
O         25.86328        53.77220        -2.08332
H         25.90378        54.51709        -2.72070
O         26.65039        55.64932         0.97414
H         27.43140        56.17710         1.23905
O         25.94306        32.28796         0.48381
H         25.57736        31.53344         1.00498
O         24.44220        39.50141        -0.82422
H         24.27761        40.42995        -1.09255
O         29.39316        16.56000        -1.87096
H         30.23259        16.94181        -2.20387
O         13.15176        37.13901        -0.05860
H         13.14187        38.05810        -0.40398
O         22.11720        54.10723        -2.76751
H         22.80618        54.64921        -3.23061
O         19.23399        48.22725         2.49417
H         19.87599        47.63507         2.94368
O         30.98158        24.53098        -2.31819
H         30.93167        25.43740        -2.68967
O         33.60162        46.59199        -0.72788
H         33.17900        45.92601        -1.30863
O         14.48045        39.01524         3.59266
H         14.99109        39.69478         4.09222
O         27.43877        29.44128        -2.80936
H         26.93441        30.07293        -3.36360
O         13.63150        27.18778         1.54202
H         12.71685        27.11491         1.97573
O         14.89914        46.72081         2.68333
H         14.13902        47.19684         3.07926
O         17.07855        47.97014        -1.51404
H         16.45400        47.29569        -1.86512
O         19.43020        58.56093        -3.16128
H         19.56203        58.00928        -3.95909
O         23.15754        45.91683         3.01736
H         22.26921        45.54354         3.25013
O         32.47913        30.98213        -1.98041
H         32.45744        31.90036        -2.32808
O         28.62743        46.32936        -0.49158
H         28.24222        45.62243        -1.05128
O         22.96613         8.13575         3.47517
H         23.78504         7.71221         3.81510
O         32.01082        22.16450        -2.06680
H         31.83099        23.01772        -2.53196
O         26.99719        21.46079         1.14271
H         26.06830        21.56390         1.46455
O         27.94888        38.25181        -2.11925
H         28.59600        37.94739        -2.78887
H          5.08355        31.00336         1.29835
H          5.07340        33.39125         1.79356
H          7.44105        26.76836         0.44308
H          6.23772        28.89917         0.94653
H          6.39766        35.56342         1.81381
H          7.57038        37.64705         2.23480
H          9.90976        22.59927        -0.81293
H          8.61957        24.76835        -0.46400
H          8.77323        39.81601         2.18940
H          9.98394        41.98301         1.97333
H         12.30432        18.46324        -1.48040
H         11.09325        20.57863        -1.26552
H         11.19781        44.15735         1.59446
H         12.37699        46.23013         1.12597
H         14.60611        14.32852        -0.41559
H         13.42082        16.47532        -1.00292
H         13.60503        48.46475         0.78499
H         14.72635        50.55514        -0.02260
H         17.07623        10.13040         0.79550
H         15.82500        12.25865         0.26656
H         15.95047        52.62952        -0.51515
H         17.17698        54.69373        -1.03809
H         19.51356         5.87386         1.42605
H         18.30712         8.01027         1.09703
H         18.42732        56.70374        -1.79454
H         20.30622        58.93306        -1.34211
H         22.85533         2.47042         1.90881
H         20.72492         3.72721         1.62631
H         23.06834        61.23944        -4.98616
H         20.91062        60.22325        -4.24391
H         25.02575         3.67952         2.07620
H         26.30789         5.79586         2.05177
H         26.51851        58.71042        -2.89605
H         25.24200        60.41188        -4.16480
H         27.60470         7.84003         1.51025
H         28.88647         9.87721         0.95752
H         29.04355        54.93200        -0.71537
H         27.73611        57.08260        -1.33766
H         30.16572        11.93401         0.55799
H         31.41784        14.05333         0.54585
H         31.48564        50.76532        -0.03780
H         30.23375        52.81225        -0.50204
H         32.70060        16.20212         0.56017
H         33.94677        18.32784         0.46696
H         34.22101        46.63618         1.24229
H         32.75428        48.79988         0.24241
H         35.24117        20.47287         0.23748
H         36.47317        22.63191         0.44369
H         36.61077        42.33411         1.25277
H         35.45604        44.56370         0.82785
H         37.66034        24.77760         0.73121
H         38.85652        26.90226         1.11454
H         38.98854        38.01023         1.51702
H         37.78093        40.20337         1.36760
H         40.07590        28.94592         1.55127
H         41.43445        31.16332         1.87692
H         41.50168        33.59651         1.65661
H         40.21527        35.87268         1.63836
