         277
 CSIRO Nanostructure Databank - Neutral Graphene Oxide Data Set
C        -10.85864         0.24666        -1.54043
C        -10.03359         1.15484        -0.71922
C         -8.95291         0.46463         0.15158
C         -7.76148         1.26517         0.61215
C         -6.42888         0.58838         0.40020
C         -5.13510         1.30004         0.58268
C         -3.97193         0.59072         0.64432
C         -2.66240         1.28888         0.53579
C         -1.36797         0.55372         0.66161
C         -0.09084         1.27003         1.00654
C          1.16414         0.56656         0.59527
C          2.47579         1.31368         0.50625
C          3.46490         0.85872        -0.56916
C          4.87407         1.42795        -0.30684
C          5.97661         0.87194        -1.18000
C          7.25645         1.63450        -1.15077
C          8.51339         0.85721        -1.07851
C          9.36561         1.49513         0.01294
C         10.78374         0.97354        -0.04679
C         -9.71854         2.53044        -1.15757
C         -8.71449         3.29015        -0.63730
C         -7.75057         2.76201         0.36699
C         -6.46476         3.53587         0.60743
C         -5.21847         2.73839         1.06441
C         -3.91943         3.53810         0.91631
C         -2.62521         2.82263         0.48420
C         -1.41525         3.52242         1.21316
C         -0.06275         2.76051         1.25072
C          1.26527         3.49472         1.20932
C          2.55381         2.75343         0.93626
C          3.80780         3.53442         0.69789
C          5.06240         2.73848         0.44861
C          6.46218         3.42060         0.57150
C          7.44319         3.03195        -0.55439
C          9.35523         3.92103         0.96505
C          8.98546         2.99500        -0.13770
C         -8.29736         4.56681        -1.36327
C         -7.67431         5.60792        -0.40652
C         -6.42150         4.99380         0.24209
C         -5.11712         5.70640         0.13746
C         -3.89180         5.00138         0.58808
C         -2.59135         5.61799         0.04756
C         -1.28284         4.87285         0.46318
C          0.02140         5.61243         0.48992
C          1.28976         4.95872         0.93264
C          2.48952         5.61648         0.82870
C          3.78039         4.90378         0.80288
C          5.06457         5.67135         0.93419
C          6.37612         4.94561         0.75635
C          7.63087         5.74879         0.65659
C          8.86995         5.24617         1.04205
C         -7.38231         6.92721        -1.08525
C         -6.20609         7.60325        -0.96391
C         -5.04324         6.98675        -0.31893
C         -3.84493         7.88181        -0.01941
C         -2.55938         7.11304         0.34098
C         -1.24902         7.82215         0.21027
C          0.02985         7.06685         0.21183
C          1.21940         7.73341         0.11698
C          2.47237         7.08371         0.59187
C          3.74017         7.85859         0.54399
C          5.08564         7.22103         0.89905
C          6.21194         7.75075        -0.02651
C          7.58137         7.24944         0.44512
C         -6.02747         8.93460        -1.54620
C         -4.83019         9.54645        -1.61865
C         -3.55230         8.88614        -1.15410
C         -2.51414         9.91632        -0.64562
C         -1.21285         9.21972        -0.27554
C         -0.01083         9.81654        -0.49178
C          1.25639         9.14663        -0.24715
C          2.45064         9.80107        -0.41945
C          3.76009         9.06655        -0.40611
C          4.99783         9.90058        -0.16818
C          6.16951         9.26727        -0.03036
C        -10.86107        -1.10137        -1.35983
C         -9.89209        -1.78014        -0.50346
C         -8.86922        -0.98551         0.05340
C         -7.63294        -1.63766         0.51965
C         -6.40053        -0.88155         0.12371
C         -5.05399        -1.59449        -0.05191
C         -4.00183        -0.93537         0.85830
C         -2.64584        -1.64813         0.69303
C         -1.33076        -0.94388         0.79104
C         -0.09183        -1.61539         0.30062
C          1.07641        -0.75660        -0.14386
C          2.42152        -1.48461         0.05690
C          3.50431        -0.68040        -0.67005
C          4.77502        -1.38376        -1.00840
C          6.02862        -0.62390        -1.38595
C          7.34200        -1.44098        -1.63468
C          8.62297        -0.61198        -1.33014
C          9.88304        -1.24008        -0.81832
C         10.96252        -0.33676        -0.29993
C         -9.90426        -3.16653        -0.25631
C         -8.98491        -3.83516         0.75070
C         -7.65014        -3.07586         0.90563
C         -6.30210        -3.80940         1.01853
C         -5.17770        -3.11739         0.19064
C         -3.87744        -3.83820         0.16590
C         -2.62027        -3.02660         0.08166
C         -1.31732        -3.74580         0.00627
C         -0.04705        -2.96863         0.11119
C          1.18509        -3.64285        -0.31538
C          2.34061        -2.92444        -0.44349
C          3.61563        -3.58946        -0.78413
C          4.87659        -2.80447        -0.55521
C          6.18402        -3.49629        -0.58163
C          7.40806        -2.75447        -0.87321
C          8.63263        -3.37898        -0.50376
C          9.83624        -2.67133        -0.47616
C         -8.79869        -5.25225         0.28937
C         -7.57256        -5.96561         0.35240
C         -6.35428        -5.27322         0.65132
C         -5.08540        -5.94920         0.33684
C         -3.78671        -5.25916         0.66365
C         -2.55324        -5.97500         0.18733
C         -1.24340        -5.23363         0.33174
C         -0.12763        -5.88489        -0.46842
C          1.12263        -5.09079        -0.70496
C          2.41298        -5.91883        -0.90994
C          3.68874        -5.07935        -0.79479
C          4.92521        -5.66819        -0.11743
C          6.22568        -5.06047        -0.79103
C          7.51173        -5.58771        -0.17141
C          8.61486        -4.79912        -0.10067
C         -7.53809        -7.37930         0.18288
C         -6.31395        -8.14283         0.61477
C         -5.06805        -7.42130         0.10227
C         -3.76597        -8.20227        -0.05021
C         -2.51522        -7.36532         0.13962
C         -1.29032        -8.07234         0.08249
C         -0.04235        -7.41820        -0.45236
C          1.21322        -7.88867         0.28449
C          2.46852        -7.14228        -0.00039
C          3.77093        -7.86436         0.03169
C          4.94075        -7.17595        -0.11059
C          6.24040        -7.84379         0.13259
C          7.51173        -7.04279         0.17020
C         -6.20494        -9.61862         0.29256
C         -5.02428       -10.25659         0.39707
C         -3.75238        -9.50650         0.75969
C         -2.44272       -10.22560         0.53321
C         -1.24538        -9.49978         0.31785
C          0.02423       -10.12355         0.39561
C          1.27928        -9.35107         0.73485
C          2.58382       -10.01514         0.32535
C          3.74909        -9.32420         0.13293
C          5.04283        -9.99589         0.00295
C          6.21468        -9.31924         0.01257
O         -0.84360        -5.30891         1.72814
H         -1.65545        -5.22402         2.28298
O          2.89644         1.65449         1.84289
O         -6.60193         0.03521        -0.98294
O          5.56927        -3.05420         0.69856
O          0.67164         0.47822         1.95991
O          2.98440         1.39049        -1.80942
H          3.24407         0.75738        -2.51993
O          2.92947         7.93450         1.75300
O         -3.72782        -8.64264        -1.42778
H         -3.91654        -7.85565        -1.98685
O         -5.39557         2.52061         2.48579
H         -5.58010         3.40639         2.87745
O          5.41140         7.67673         2.22778
H          4.56080         7.72360         2.72685
O         -1.90392         0.81029        -0.66974
O         -1.90395        -1.58394         1.96944
O          6.00894         7.21611        -1.34202
H          5.21395         7.69399        -1.74380
O          6.84624        -7.35102         1.42935
O          5.19480         1.42647         1.09992
O         -1.94563         7.57579         1.56208
O         -8.65898         5.87528         0.61077
H         -8.32019         5.48404         1.45230
O          1.76234        -6.96448         1.27700
O         -2.71076         5.60057        -1.40031
H         -1.91312         5.13693        -1.75445
O          0.65359         3.11376         2.48026
O          9.68321        -0.93020        -2.27413
O          3.79083        -4.33199        -2.04217
O         -4.59639        -1.37006        -1.38327
H         -4.53962        -2.24292        -1.84399
O         -1.76145         3.70018         2.58189
H         -0.92806         3.76058         3.10501
O          0.07991        -7.90422        -1.80760
H          0.64368        -7.25700        -2.30423
O         -4.44508        -1.14954         2.20971
H         -3.66238        -1.06602         2.80173
O         -3.83967         4.55287         1.96017
O          6.21347        -5.38815        -2.10825
O         -6.70352         4.58671         1.62433
O         -5.20814        -6.53984        -1.04023
O         -3.87564        -6.48773         2.69958
H         -4.86044        -6.51768         2.84028
O          2.39593        -6.45927        -2.24766
H          2.74120        -5.75548        -2.84669
O          8.17588         1.60550        -2.29237
O          0.12770        -5.30789        -1.76795
O        -10.20820         0.95386         0.70767
O         -1.98643        -3.25949        -1.21429
O         -0.42091         4.76710        -0.70465
O          5.66954         0.31053        -2.47029
O         -8.12919         2.17284         1.66387
O         -4.75322        -3.81100        -1.01483
O         -3.65176        -5.16327         2.16438
O         10.43626         3.57937         1.66187
H         10.66657         4.26426         2.32243
O          7.05129         2.93861         1.79887
H          6.47526         3.24234         2.53826
O          0.88450        -0.46041        -1.53836
H          0.81183        -1.30218        -2.03646
O          3.71172        -1.19046        -2.00909
O          7.34340        -1.76385        -3.03147
H          7.24252        -0.92730        -3.53427
O          1.29099        -9.35518         2.19975
H          1.62567        -8.46587         2.47150
O         -7.28635         4.21575        -2.31875
H         -7.67280         3.60903        -2.98282
O         -7.71388        -2.03704         1.94949
O         -4.24399         8.65702         1.13214
H         -3.62092         8.43856         1.86501
O         -2.27790        10.89025        -1.65987
H         -2.11976        10.39724        -2.49327
O         -2.94852         8.21187        -2.28425
H         -3.06031         7.23286        -2.18125
O          3.78906         8.55367        -1.74025
O          5.81569         5.19675         2.10732
O         -6.25089        -8.01349         2.08232
H         -5.52981        -8.62343         2.39130
O          8.01504         7.91157         1.63670
H          7.23735         7.93613         2.24746
O         -5.87973        -3.74038         2.39735
H         -6.22465        -2.89042         2.76465
O          7.25129         3.99490        -1.58688
H          7.60503         3.61697        -2.42365
O         -3.81858        -9.21222         2.19048
H         -3.10270        -8.57477         2.41075
O          8.84912         0.97829         1.25838
H          8.08345         1.52535         1.56796
O         -9.64775        -3.86006         2.04602
H         -9.37617        -3.04517         2.52646
O          4.84839        -5.31675         1.27133
H          5.53104        -5.84873         1.74774
O         -2.54230         3.14747        -0.91771
H         -2.07607         2.41315        -1.38462
O          2.76979        -1.50167         1.44605
H          1.99245        -1.76767         1.98049
H         11.97424        -0.76893        -0.24201
H         11.62415         1.60660         0.27394
H          9.53266         3.37152        -1.03919
H          9.59707         5.99991         1.39781
H          8.33165         7.48970        -0.35575
H          7.11330         9.81934         0.09524
H          4.93980        10.99947        -0.19658
H          2.44785        10.83697        -0.79315
H          0.01197        10.84092        -0.89366
H         -2.93010        10.44679         0.24999
H         -4.74384        10.54147        -2.08172
H         -6.92581         9.43325        -1.94231
H         -8.22880         7.40721        -1.60075
H         -9.18675         5.00488        -1.89262
H        -10.29548         2.92800        -2.00903
H        -11.51412         0.69392        -2.30349
H        -11.54814        -1.72722        -1.94839
H        -10.71662        -3.77378        -0.68253
H         -9.71623        -5.81855         0.06817
H         -8.46283        -7.91694        -0.07499
H         -7.11528       -10.17802         0.02617
H         -4.96010       -11.33656         0.19365
H         -2.37946       -11.29804         0.77558
H          0.06335       -11.21718         0.52679
H          2.62448       -11.11392         0.39383
H          5.04476       -11.09472        -0.05623
H          7.17106        -9.86124        -0.02670
H          8.47616        -7.58705         0.04859
H          9.57383        -5.22495         0.23792
H         10.75444        -3.16826        -0.12942
