         252
 CSIRO Nanostructure Databank - Neutral Graphene Oxide Data Set
C         30.40324        31.72892        -0.76904
C         30.50778        32.97726        -0.61629
C         30.59101        35.95989         0.34221
C         30.66363        37.13170         0.78471
C         30.83653        40.08728         1.86247
C         30.86817        41.28862         2.22457
C         32.69633        28.89134        -0.32322
C         31.64000        29.46220        -0.64825
C         32.80365        31.57803        -0.66762
C         31.52551        30.88602        -0.73576
C         32.84883        33.01201        -0.57868
C         31.63773        33.78749        -0.46327
C         32.91557        35.86644        -0.03721
C         31.67503        35.16328        -0.09842
C         32.96164        37.21663         0.43443
C         31.82602        37.93273         0.89804
C         33.05657        40.10473         1.15719
C         31.89299        39.31264         1.32215
C         33.13220        41.50849         1.46611
C         31.96985        42.16229         2.06988
C         33.21368        44.11417         2.03261
C         32.15641        43.52740         2.39373
C         35.33228        27.30037         0.54652
C         35.12801        28.66562         0.17984
C         34.02662        29.38977        -0.19710
C         35.28234        31.53677        -0.55147
C         34.05618        30.85494        -0.49703
C         35.33024        32.98767        -0.74487
C         34.10556        33.71697        -0.57530
C         35.33922        35.86165        -0.57271
C         34.13028        35.14356        -0.40371
C         35.23911        37.37586        -0.61256
C         34.25493        37.93194         0.41362
C         35.26604        40.28961        -0.06671
C         34.28001        39.40374         0.70590
C         35.49173        41.68467         0.47874
C         34.31778        42.28617         1.13946
C         35.37661        44.52536         0.65993
C         34.37940        43.67709         1.39900
C         35.68349        45.90133         1.28206
C         37.66610        27.19628         1.33270
C         36.35806        26.65589         0.81497
C         37.63223        28.72487         0.94952
C         36.50430        29.27512         0.03709
C         37.82684        31.12527        -0.52080
C         36.48615        30.81799         0.07288
C         37.81307        33.14762        -1.24288
C         36.52175        33.76199        -1.00579
C         37.78086        35.90789        -1.29214
C         36.51194        35.18265        -0.96160
C         37.83066        37.40736        -1.17781
C         36.60715        38.10325        -0.65309
C         38.02959        40.20822        -0.19747
C         36.89437        39.30826         0.20403
C         37.94889        41.70747        -0.13566
C         36.64652        42.37500         0.20445
C         37.78709        44.65948        -0.33834
C         36.79710        43.84066         0.58203
C         37.94981        46.07815         0.26289
C         36.77409        46.41696         0.98701
C         40.14082        24.42610         0.49129
C         39.13056        25.16694         0.67959
C         40.18837        27.22279         0.74232
C         38.91648        26.52921         0.80713
C         40.19669        28.63221         0.81586
C         38.95070        29.43739         0.84812
C         40.26502        31.43053        -0.22013
C         38.99540        30.69935         0.03172
C         40.26891        32.90597        -0.65808
C         39.03378        33.70503        -0.91190
C         40.35970        35.89977        -0.77724
C         39.10254        35.17106        -1.09030
C         40.39251        37.30691        -0.84503
C         39.19540        38.09742        -1.31916
C         40.36982        40.23705        -0.85515
C         39.21104        39.53251        -0.81203
C         40.40954        41.75651        -1.06988
C         38.99558        42.49142        -0.94705
C         40.29592        44.69573        -0.66832
C         39.14912        43.97111        -0.50412
C         40.10419        46.20252        -0.95983
C         39.06685        46.79777         0.00226
C         40.58817        48.71517         0.38497
C         39.52866        48.06209         0.46641
C         42.71885        24.45048         0.50195
C         41.42991        25.01931         0.55545
C         42.70687        27.17722         0.68896
C         41.45253        26.48027         0.64142
C         42.75997        28.68538         0.48635
C         41.45299        29.38927         0.83254
C         42.78837        31.50594         0.24044
C         41.46161        30.86533         0.50563
C         42.72807        32.98766         0.16777
C         41.45704        33.71176        -0.18334
C         42.72835        35.88064        -0.17724
C         41.53068        35.18076        -0.44815
C         42.75966        37.27934        -0.31330
C         41.60134        38.00255        -0.67250
C         42.87582        40.24449        -0.48288
C         41.65004        39.47970        -0.90991
C         42.76307        41.68912        -0.12872
C         41.47897        42.51217        -0.23555
C         42.93740        44.81205        -0.43931
C         41.65563        43.98050        -0.88276
C         43.29384        45.90590        -1.19135
C         41.35362        47.04329        -1.10008
C         43.06273        48.55661        -0.53568
C         41.66893        48.23662        -0.46087
C         43.79082        25.10667         0.56855
C         45.23426        27.20867         0.80117
C         43.94802        26.50226         0.64183
C         45.29329        28.72482         0.99979
C         43.96218        29.48491         1.09193
C         45.25999        31.53266        -0.03607
C         43.97319        30.86728         0.43258
C         45.19728        33.05705         0.06439
C         44.00557        33.72208         0.15967
C         45.23756        35.92664         0.24763
C         43.93004        35.19656         0.47386
C         45.23149        37.30195         0.32340
C         43.92966        38.00561         0.25097
C         45.19586        40.20282         0.80209
C         43.92059        39.49033         0.31642
C         45.21924        41.63744         0.26890
C         43.83598        42.17393         0.53670
C         45.34716        44.64447         0.29118
C         44.01033        44.31692         0.39517
C         45.68143        45.99438        -0.30451
C         44.55382        46.69059        -1.01272
C         44.15762        48.10874        -0.91292
C         47.56890        27.36747         0.10509
C         46.51623        26.74859         0.26099
C         47.86822        28.77461         0.37254
C         46.58866        29.50127         0.80084
C         47.75696        31.62554        -0.02921
C         46.53665        31.02726         0.67612
C         47.66182        33.04735        -0.32869
C         46.43980        33.79932         0.00012
C         47.72321        35.93956         0.04695
C         46.47179        35.19422         0.08962
C         47.70436        37.35906         0.22308
C         46.46590        38.06546         0.33755
C         47.67755        40.21433         0.56351
C         46.47151        39.45797         0.52066
C         47.64829        41.65596         0.88931
C         46.40377        42.40951         0.82081
C         47.52168        44.47771         1.60558
C         46.37812        43.80239         0.93846
C         47.48977        45.92072         1.34402
C         46.79015        46.50934         0.51290
C         50.27777        29.00634        -0.45568
C         48.99954        29.51835        -0.17955
C         50.21479        31.69789        -0.51710
C         48.96450        30.95438        -0.30213
C         50.23294        33.05557        -0.26471
C         49.00457        33.84230        -0.43164
C         50.18686        36.02066        -0.05410
C         48.96699        35.29300        -0.13542
C         50.16659        37.38798         0.22897
C         48.92487        38.09453         0.28002
C         50.12684        40.30958         0.11283
C         48.89391        39.52743         0.36164
C         50.12147        41.75814         0.60363
C         48.85735        42.31312         1.15506
C         50.15939        44.28010         1.79470
C         48.82970        43.66637         1.76128
C         51.42724        29.49222        -0.56009
C         52.66802        31.74124        -0.32536
C         51.55776        30.96023        -0.96511
C         52.58627        32.94235        -0.06065
C         51.46456        33.86175         0.22441
C         52.63868        36.11371         0.02011
C         51.48233        35.23799        -0.51367
C         52.55427        37.28642         0.38188
C         51.42221        38.20863         0.61105
C         52.53183        40.44965         0.11839
C         51.42630        39.48724        -0.22638
C         52.53813        41.61734         0.55458
C         51.44894        42.44706         0.87926
C         51.21416        43.71220         1.41431
O         39.49371        46.17002        -2.32425
O         49.96541        41.40293        -0.83641
O         41.35371        30.42989         1.87946
O         35.11942        40.24752        -1.35185
O         34.75164        38.41927         1.69070
O         38.10379        29.50563         2.07509
O         38.46537        42.62592        -2.24079
O         48.24819        33.44535        -1.60363
O         36.95501        38.19716        -2.04830
O         43.68789        43.32309         1.32427
O         37.81332        31.83223        -1.71197
O         45.71310        46.19155        -1.73172
O         38.47411        40.95947         1.01420
O         41.77932        33.45579         1.23171
O         51.44891        35.07984        -1.82655
O         45.40550        27.78243         2.12303
O         47.61171        29.11513         1.77367
O         45.25212        41.65740        -1.21221
O         42.31399        46.51207        -1.99326
O         40.59968        31.82351        -1.59131
O         47.93126        43.91534         2.85079
O         38.54595        35.47286        -2.45220
O         43.40191        38.71972         1.45374
O         42.69768        39.85480        -1.86600
O         39.40426        38.20113        -2.75635
H         39.14369        37.34010        -3.15705
O         43.69704        35.29036         1.91273
H         42.92185        34.71159         2.11487
O         51.29847        38.61826         1.97440
H         51.47126        37.84307         2.54830
O         42.92210        28.84099        -0.95643
H         42.23216        28.31546        -1.41453
O         37.22665        44.80343        -1.65067
H         37.56503        44.01314        -2.18741
O         34.58525        37.64241        -1.87659
H         34.71568        38.60926        -2.07314
O         36.49092        31.30811         1.43092
H         35.68606        30.98835         1.88890
O         37.41387        43.85544         1.88262
H         36.82375        43.40764         2.52332
O         37.71175        27.07574         2.74616
H         37.89426        27.97145         3.11986
O         46.51794        41.07441        -1.65099
H         46.54031        41.36350        -2.59618
O         37.01554        38.99440         1.52344
H         37.51753        39.73289         1.95739
O         40.76059        41.75845        -2.44728
H         39.91985        41.99241        -2.93230
O         43.73263        29.71723         2.48502
H         44.15524        28.98663         2.99127
O         34.82171        44.70720        -0.61456
H         35.54317        44.96314        -1.24875
O         39.24197        47.55405        -2.68717
H         38.26680        47.55587        -2.84832
O         51.62066        31.04536        -2.35067
H         52.53310        30.87547        -2.66026
O         45.43868        31.13875        -1.42020
H         44.64912        31.40579        -1.93605
O         40.94779        42.67724         1.08571
H         41.67136        42.99779         1.66952
O         51.39292        39.16552        -1.58642
H         51.21111        39.97979        -2.10229
O         41.86755        43.84168        -2.28168
H         41.64222        44.68909        -2.72385
O         51.31059        34.11020         1.61540
H         51.67212        33.35443         2.12272
O         45.11771        40.36292         2.23708
H         44.60727        39.59068         2.58257
O         46.51847        31.56183         2.01375
H         47.08797        30.98732         2.57292
O         36.95709        28.88476        -1.29010
H         36.25303        29.08243        -1.94346
