         430
 CSIRO Nanostructure Databank - Neutral Graphene Oxide Data Set
C         28.03068        27.40836         0.61726
C         28.01118        28.90562         0.50875
C         26.82676        29.56262         1.15895
C         28.03869        31.67802         1.27133
C         26.83987        30.90171         1.40628
C         28.05012        33.09383         1.22315
C         26.84258        33.84767         1.25311
C         28.05580        35.95829         1.09256
C         26.85162        35.22965         1.18760
C         28.05831        37.40279         0.91027
C         26.84596        38.09547         0.62182
C         28.01569        40.22923         0.56728
C         26.82408        39.46260         0.47717
C         27.99476        41.66657         0.52393
C         26.75734        42.40513         0.44967
C         27.93971        44.53372         0.29711
C         26.74082        43.77582         0.30363
C         27.95889        45.90927         0.03776
C         30.49044        27.38011         0.61777
C         29.19153        26.72092         0.59002
C         30.49889        28.82722         0.82871
C         29.32036        29.52137         0.93113
C         30.56235        31.69206         1.02890
C         29.33496        30.93357         1.44873
C         30.53874        33.10785         1.00467
C         29.29474        33.81377         1.11615
C         30.52861        35.95061         1.04266
C         29.29700        35.23882         1.09164
C         30.52629        37.41915         1.38314
C         29.25775        38.12959         0.96910
C         30.47660        40.28342         0.73006
C         29.25908        39.54355         0.76691
C         30.45738        41.67508         0.53612
C         29.21091        42.37170         0.53213
C         30.45666        44.55026         0.22812
C         29.21576        43.86283         0.73056
C         30.41869        45.94414        -0.00223
C         29.16317        46.61014        -0.04505
C         32.90194        24.57929         0.18643
C         31.72933        25.24682         0.38722
C         32.99738        27.35334         0.86381
C         31.67964        26.67160         0.56762
C         32.97026        28.85046         0.66820
C         31.77452        29.54126         0.84168
C         32.99268        31.70028         0.68567
C         31.76710        30.98443         0.84535
C         32.99204        33.12970         0.70998
C         31.76067        33.83129         0.84576
C         32.98933        35.98175         0.76579
C         31.75204        35.26370         0.89090
C         32.97183        37.42886         0.75735
C         31.78100        38.12667         0.94810
C         32.98048        40.25339         0.41160
C         31.78837        39.62537         1.07780
C         32.90892        41.65073        -0.13841
C         31.67154        42.41610         0.25999
C         32.87124        44.46060        -0.53300
C         31.64765        43.79515         0.06107
C         32.88040        45.96866        -0.40838
C         31.66239        46.67133        -0.21728
C         32.87872        48.77707        -0.37385
C         31.69606        48.08704        -0.19998
C         35.33958        23.14945        -0.61359
C         35.34036        24.57415        -0.36758
C         34.16641        25.26819         0.03259
C         35.37645        27.41660         0.02214
C         34.19118        26.67521         0.22839
C         35.40627        28.84864         0.20392
C         34.19879        29.55964         0.47730
C         35.44440        31.70519         0.39182
C         34.21249        30.98779         0.51264
C         35.45598        33.14021         0.46952
C         34.22174        33.84941         0.60604
C         35.44924        35.99982         0.49501
C         34.21246        35.28147         0.62236
C         35.44018        37.42895         0.44788
C         34.21607        38.13506         0.55088
C         35.43398        40.29498         0.19635
C         34.18217        39.56622         0.37179
C         35.42145        41.68891         0.22804
C         34.18648        42.43890         0.08902
C         35.36779        44.69167         0.15351
C         34.15657        43.79900        -0.05860
C         35.33724        45.86473        -0.86182
C         34.07872        46.66421        -0.60691
C         35.33858        48.80540        -0.72031
C         34.10498        48.08968        -0.57970
C         35.39132        50.22337        -0.93671
C         37.70874        23.18089        -1.41962
C         36.41799        22.49602        -1.10455
C         37.68697        24.65166        -1.10451
C         36.56290        25.30108        -0.58642
C         37.77696        27.46190        -0.44945
C         36.57127        26.74007        -0.36780
C         37.83692        28.85308        -0.20469
C         36.62781        29.56462         0.05908
C         37.89294        31.70547         0.08727
C         36.65430        30.99374         0.18849
C         37.91799        33.12828         0.24052
C         36.68573        33.84803         0.41092
C         37.90744        36.00846         0.37995
C         36.68639        35.29116         0.43508
C         37.91782        37.41842         0.25732
C         36.67902        38.14288         0.27322
C         37.90918        40.26052        -0.00632
C         36.67833        39.55992         0.17237
C         37.92693        41.68193        -0.06509
C         36.69831        42.41708         0.26974
C         37.88499        44.55562        -0.44777
C         36.69253        43.93292         0.13194
C         37.85285        45.96834        -0.76815
C         36.60446        46.66875        -0.77261
C         37.80940        48.80118        -0.77435
C         36.59604        48.08760        -0.75714
C         37.80369        50.23976        -0.34492
C         36.56501        50.91570        -0.87405
C         40.00767        20.74888         0.48392
C         38.84178        21.36179         0.03440
C         40.14026        23.24353        -0.78406
C         38.90360        22.59521        -0.64010
C         40.24887        24.54999        -1.55450
C         38.91779        25.43185        -1.47364
C         40.31586        27.41632        -0.58650
C         39.01927        26.68437        -0.62913
C         40.30485        28.88017        -0.47325
C         39.09347        29.56569        -0.26673
C         40.34242        31.70162        -0.20962
C         39.10811        30.99526        -0.13043
C         40.36350        33.12361        -0.02173
C         39.15817        33.81879         0.21312
C         40.44606        35.99342         0.23273
C         39.19108        35.26602         0.64658
C         40.41997        37.43239         0.09331
C         39.15941        38.12930         0.09162
C         40.35227        40.25822        -0.34696
C         39.14462        39.53859        -0.08809
C         40.34040        41.67414        -0.50224
C         39.11252        42.39381        -0.32755
C         40.29964        44.48422        -0.89976
C         39.08911        43.82478        -0.54109
C         40.29710        45.91572        -1.35909
C         39.04018        46.65438        -1.02286
C         40.32640        48.79070        -0.78891
C         39.05188        48.13383        -1.26837
C         40.32604        50.20148        -0.60258
C         39.11624        50.95433        -0.57806
C         40.38400        53.03672        -0.54837
C         39.16591        52.34985        -0.54326
C         42.49618        20.66929         0.64120
C         41.27024        21.31479         0.20578
C         42.63975        23.12569        -0.86324
C         41.32994        22.56628        -0.44859
C         42.71950        24.59432        -1.04043
C         41.51448        25.31472        -1.15758
C         42.76503        27.41712        -0.93100
C         41.54281        26.71326        -1.00087
C         42.75799        28.85188        -0.77848
C         41.54073        29.57570        -0.58616
C         42.80420        31.70292        -0.48056
C         41.56297        30.99787        -0.43222
C         42.83045        33.13121        -0.31242
C         41.62273        33.82637        -0.07084
C         42.92024        35.94636         0.13278
C         41.62226        35.26175         0.08817
C         42.90592        37.49369         0.00989
C         41.60483        38.15272        -0.15905
C         42.77494        40.24538        -0.82186
C         41.58926        39.55321        -0.46308
C         42.77276        41.65645        -0.97647
C         41.54733        42.37115        -0.78395
C         42.75194        44.52467        -1.11181
C         41.51862        43.79562        -0.94026
C         42.78036        45.93587        -1.00070
C         41.55402        46.65610        -0.95782
C         42.78155        48.69152        -0.19162
C         41.51998        48.04132        -0.72047
C         42.80000        50.18842        -0.38977
C         41.58948        50.89652        -0.49432
C         42.84767        53.01789        -0.39745
C         41.59649        52.33299        -0.49544
C         43.72293        21.18272         0.38225
C         45.18531        23.14287        -0.42831
C         43.89994        22.38670        -0.45427
C         45.19935        24.53938        -0.69876
C         43.96216        25.26605        -0.91132
C         45.23362        27.39336        -0.89460
C         43.98819        26.68779        -0.95680
C         45.21558        28.82070        -0.86483
C         43.98972        29.55387        -0.79330
C         45.26482        31.67632        -0.75214
C         44.01268        30.97855        -0.66476
C         45.28846        33.11855        -0.67029
C         44.09843        33.82679        -0.41978
C         45.34369        35.97696        -0.40055
C         44.15019        35.25311        -0.24444
C         45.32914        37.42640        -0.52807
C         44.11939        38.12393        -0.47173
C         45.26575        40.30408        -0.84334
C         44.02026        39.45415        -1.17008
C         45.22469        41.61478        -1.62271
C         43.96874        42.39585        -1.29972
C         45.19430        44.55897        -1.52911
C         43.96613        43.79836        -1.31055
C         45.27767        45.93011        -1.27446
C         44.05237        46.64909        -0.95386
C         45.29472        48.74756        -0.51554
C         44.05324        48.00656        -0.64399
C         45.25743        50.16191        -0.18219
C         44.03452        50.88504        -0.26678
C         44.01868        52.32186        -0.28050
C         47.61734        23.15552        -0.28827
C         46.39204        22.48178        -0.18951
C         47.66189        24.52024        -0.56380
C         46.44269        25.23704        -0.71581
C         47.67995        27.40469        -0.64905
C         46.45855        26.67985        -0.82703
C         47.65074        28.80415        -0.61280
C         46.44334        29.52868        -0.81240
C         47.75323        31.63372        -1.18533
C         46.45511        30.95111        -0.86255
C         47.74645        33.11112        -0.93279
C         46.55067        33.81518        -0.75795
C         47.76615        35.95614        -0.83475
C         46.57341        35.26212        -0.64822
C         47.77704        37.40015        -0.88793
C         46.55081        38.13063        -0.84823
C         47.74787        40.24587        -1.28744
C         46.57153        39.55949        -1.03246
C         47.84480        41.72110        -1.68494
C         46.49160        42.42226        -1.50244
C         48.13836        44.76352        -1.25606
C         46.34311        43.72967        -1.85692
C         47.80964        46.00664        -0.77133
C         46.59529        46.74105        -1.36069
C         47.82538        48.80258        -0.48742
C         46.50428        48.12105        -0.74324
C         47.69431        50.21812        -0.01859
C         46.49541        50.83729         0.09179
C         50.22075        24.53264        -0.41414
C         48.96644        25.24165        -0.86078
C         50.06515        27.33373        -0.00352
C         48.93343        26.69090        -0.42324
C         50.08068        28.80272         0.18552
C         48.83235        29.56396        -0.17435
C         50.15482        31.64052        -0.44308
C         48.95089        30.97286        -0.54614
C         50.20748        33.05059        -0.80884
C         49.02200        33.76489        -1.00440
C         50.32345        35.98208        -1.17559
C         49.01198        35.23258        -1.17690
C         50.23443        37.34964        -0.53250
C         48.99780        38.08138        -0.97516
C         50.28945        40.28127        -0.86896
C         49.01462        39.50819        -1.26535
C         50.14253        41.69798        -0.49985
C         49.02593        42.42771        -0.93862
C         49.89499        44.38516         0.34549
C         49.01728        43.83141        -0.63215
C         49.73273        45.74945         0.76376
C         48.69143        46.56282         0.21510
C         49.50441        48.47830         1.45620
C         48.64658        47.95000         0.48732
C         51.27745        25.14791         0.12921
C         52.57355        27.35585         0.31233
C         51.27157        26.59896         0.53225
C         52.57674        28.78624         0.29960
C         51.35961        29.53221         0.12520
C         52.62563        31.62607        -0.02193
C         51.37599        30.91952        -0.08594
C         52.68859        33.02513        -0.25557
C         51.52750        33.70969        -0.85479
C         52.76998        35.93127        -0.44577
C         51.60876        35.23202        -1.02244
C         52.84690        37.43988        -0.57620
C         51.50632        38.15260        -0.52518
C         52.72325        40.28998        -0.09629
C         51.46750        39.50230        -0.40417
C         52.38743        41.58853         0.61915
C         51.18558        42.28939         0.30832
C         51.94271        44.20282         1.70387
C         50.99104        43.61144         0.81632
C         51.75113        45.53029         2.19500
C         50.63579        46.32155         1.71021
C         50.45228        47.66919         2.08547
C         55.01664        27.33236         0.42446
C         53.82735        26.67475         0.26283
C         55.02210        28.75921         0.89030
C         53.79627        29.49954         0.42393
C         55.06720        31.61696         0.38370
C         53.82694        30.90845         0.28367
C         55.06517        33.03672         0.36333
C         53.86816        33.74960         0.01851
C         55.02170        35.90133         0.54407
C         53.87234        35.20672        -0.00028
C         54.94078        37.30369         0.83527
C         53.84338        38.08060         0.35907
C         54.71387        40.07919         1.47009
C         53.75760        39.44741         0.62214
C         54.53318        41.44630         1.87528
C         53.33767        42.15932         1.50072
C         54.06241        44.05022         2.93719
C         53.10652        43.46290         2.06027
C         53.82333        45.34263         3.46657
C         52.70215        46.06284         3.09929
C         56.29235        29.50501         0.60971
C         56.29448        30.84700         0.44991
C         56.23488        33.78570         0.70067
C         56.19357        35.15561         0.83391
C         55.92017        37.96041         1.63007
C         55.79587        39.29184         1.95464
C         55.47368        42.08111         2.73294
C         55.25476        43.33700         3.25031
O         50.00307        39.96938        -2.26758
O         43.35745        22.28325        -1.81797
O         36.91288        43.30213         1.44636
O         49.18070        29.29039         1.24984
O         40.39211        24.16526        -2.90219
O         51.88027        34.33794        -2.13961
O         43.06440        36.81622         1.30132
O         39.78022        26.66089         0.61376
O         49.63492        35.78222        -2.41855
O         47.47111        44.35553        -2.42506
O         33.20103        27.15390         2.31518
H         34.03225        27.61397         2.55966
O         37.99454        22.94856        -2.81663
H         38.92042        23.29955        -3.01033
O         48.60065        48.83578        -1.72559
H         48.15689        48.23587        -2.37476
O         35.22769        45.28903         1.46323
H         35.60315        44.64239         2.10538
O         54.92213        28.68343         2.37314
H         54.11135        28.16770         2.57500
O         40.32282        45.85761        -2.83963
H         40.09430        46.77072        -3.15081
O         30.51191        37.45930         2.86776
H         31.35418        37.06238         3.17578
O         38.67393        25.90317        -2.82119
H         39.28694        25.34121        -3.38931
O         42.73620        48.49130         1.27308
H         41.92208        48.93073         1.60048
O         53.34059        37.69362        -1.93358
H         53.47232        38.67016        -2.01138
O         31.97431        39.92976         2.52118
H         32.79597        39.47800         2.80956
O         53.33020        40.62960        -1.39101
H         52.65451        41.10974        -1.91707
O         50.03852        37.02019         0.90071
H         49.96173        37.86058         1.40094
O         32.79774        41.48299        -1.61806
H         33.54791        40.91622        -1.90158
O         45.19073        40.66333         0.55895
H         45.12163        39.83612         1.08171
O         49.03155        25.28602        -2.32537
H         49.85497        25.75516        -2.57543
O         35.30646        45.30449        -2.19993
H         34.39635        44.92839        -2.35099
O         32.81761        44.20019        -1.98636
H         32.73407        43.21408        -2.09781
O         45.19074        41.32590        -3.06630
H         46.12054        41.17119        -3.36262
O         46.86204        46.96628        -2.78401
H         47.05425        46.08015        -3.17442
O         48.11694        41.72912        -3.11433
H         48.21776        42.67260        -3.37608
O         43.94406        39.10647        -2.57575
H         44.16542        39.91778        -3.10072
O         39.27073        35.21633         2.12979
H         40.15080        34.84832         2.36091
O         37.66215        50.24010         1.13459
H         36.83547        49.75238         1.34067
O         39.06467        48.30215        -2.76763
H         38.16774        48.05560        -3.08461
O         51.10228        26.60866         1.99713
H         50.67897        27.46040         2.24194
O         27.87872        29.21337        -0.93402
H         28.59187        28.72639        -1.39969
O         29.45751        30.79471         2.92661
H         29.55963        31.69895         3.29397
O         29.24857        44.03923         2.21317
H         28.47174        43.55933         2.57325
O         47.92507        31.45755        -2.64371
H         48.66323        32.04183        -2.92310
H         27.06912        26.87306         0.61893
H         25.90166        28.98132         1.28705
H         25.90666        31.39587         1.71815
H         25.87823        33.32834         1.32993
H         25.88902        35.75695         1.21802
H         25.90443        37.53991         0.52267
H         25.86395        39.95667         0.27891
H         25.80210        41.86449         0.45175
H         25.78275        44.29651         0.15505
H         27.01059        46.43837        -0.14009
H         29.15670        25.62247         0.60342
H         29.12369        47.68767        -0.25181
H         32.86443        23.48957         0.06289
H         30.79494        24.66874         0.38712
H         32.86882        49.87450        -0.32875
H         30.77501        48.65830        -0.02435
H         34.41711        22.57894        -0.43965
H         34.46842        50.75638        -1.20882
H         36.33760        21.42813        -1.35507
H         36.57141        51.99193        -1.09905
H         39.95140        19.78206         1.00469
H         37.87259        20.86490         0.18467
H         40.39476        54.13586        -0.53246
H         38.23450        52.93059        -0.49402
H         42.40431        19.75648         1.24913
H         42.85372        54.11738        -0.41111
H         44.61344        20.70688         0.81914
H         44.96273        52.87850        -0.21899
H         48.54495        22.58226        -0.15717
H         46.39558        21.40355         0.02190
H         48.62057        50.78240         0.16062
H         46.47198        51.89083         0.40303
H         50.30444        23.46352        -0.66389
H         49.46606        49.54759         1.70697
H         52.16186        24.54940         0.39546
H         51.11201        48.12865         2.83339
H         55.96659        26.77945         0.38488
H         53.83916        25.59239         0.06779
H         54.55693        45.78079         4.15837
H         52.56455        47.07111         3.51178
H         57.23937        28.94529         0.62870
H         57.25184        31.36880         0.30709
H         57.16811        33.25754         0.93727
H         57.10147        35.67811         1.16404
H         56.77536        37.39749         2.02688
H         56.56009        39.74246         2.60066
H         56.40390        41.56321         2.99991
H         55.99959        43.80218         3.91143
