         320
 CSIRO Nanostructure Databank - Neutral Graphene Oxide Data Set
C         30.37145        31.53670        -0.78239
C         30.30079        32.76977        -0.75095
C         30.43920        36.07268        -1.32622
C         30.43224        37.29660        -1.50235
C         30.76050        40.71633        -0.56655
C         30.75795        41.60666         0.27843
C         32.64119        28.76481         0.41618
C         31.67208        29.34996        -0.10421
C         32.56019        31.62901         0.34212
C         31.47965        30.58388        -0.85606
C         32.68945        33.02714        -0.20871
C         31.48099        33.70518        -0.92422
C         32.67152        35.94501        -0.67585
C         31.31098        35.16682        -0.50396
C         32.75486        37.51577        -0.69180
C         31.32592        38.21133        -0.68812
C         32.81425        40.34112         1.54107
C         31.37487        39.62387        -1.27490
C         32.75859        41.71093         1.41659
C         31.31717        42.36526         1.47323
C         32.62283        44.45611         1.10408
C         31.58936        43.80376         1.24717
C         35.44000        27.31385         0.77497
C         35.16560        28.68200         0.89571
C         33.87196        29.36961         0.95540
C         35.16334        31.64202         0.68088
C         33.83888        30.91418         0.74882
C         35.20952        32.95665        -0.10042
C         33.86117        33.70664        -0.07225
C         35.16790        35.88656        -0.02267
C         33.91262        35.15983        -0.39885
C         35.13044        37.33712         0.30104
C         33.70917        38.00893         0.49675
C         35.10436        40.20144         0.61980
C         33.74005        39.58138         0.59780
C         35.21325        41.66898         0.92325
C         33.91193        42.47303         0.76935
C         35.21224        44.68372         0.85187
C         34.02258        43.93942         1.38978
C         35.36309        46.00896         0.55377
C         37.80597        27.19858         0.57555
C         36.41866        26.57862         0.47545
C         37.64699        28.64275         0.04322
C         36.40281        29.41289         0.43258
C         37.83085        31.63214         0.55986
C         36.46716        30.89743         0.66260
C         37.77768        33.09007         0.07151
C         36.46756        33.84035         0.27024
C         37.71213        36.05717        -0.66062
C         36.39496        35.16514        -0.58260
C         37.64360        37.54339        -0.17676
C         36.36621        38.11970        -0.01668
C         37.99390        40.59568         0.06284
C         36.10482        39.52743        -0.05758
C         37.86099        41.74712         0.77190
C         36.52594        42.42032         0.93738
C         37.80567        44.64657         0.86976
C         36.48395        43.88445         0.48581
C         37.82556        46.12522         0.21291
C         36.54494        46.50818         0.23878
C         40.16796        24.36452        -0.09406
C         39.12027        25.04976        -0.04575
C         40.21798        27.12342        -0.20779
C         38.95845        26.46023        -0.02471
C         40.21114        28.58672        -0.64853
C         38.92717        29.38976        -0.31562
C         40.30788        31.56238         0.03021
C         38.95853        30.87775        -0.14495
C         40.26758        33.05695        -0.45368
C         38.93374        33.77800        -0.13849
C         40.23134        36.01779        -0.32783
C         38.91800        35.31194         0.01652
C         40.24024        37.50998        -0.19401
C         38.93257        38.27686        -0.07096
C         40.34949        40.34437         0.41191
C         39.08660        39.65438         0.14096
C         40.36551        41.64164         0.84824
C         39.11728        42.43529         1.22018
C         40.41305        44.60892         0.64690
C         39.06443        43.84629         0.44309
C         40.31649        45.92353        -0.09529
C         39.15727        46.83483         0.33691
C         40.27521        49.08583        -0.21877
C         39.43271        48.17761        -0.27354
C         42.77583        24.33809        -0.06268
C         41.48118        24.86740        -0.63195
C         42.68065        27.19170         0.13403
C         41.42985        26.42956        -0.31300
C         42.69688        28.64878        -0.28105
C         41.52152        29.32618        -0.36917
C         42.78916        31.55826        -0.29091
C         41.51381        30.81585        -0.53136
C         42.87038        33.09010        -0.14127
C         41.47159        33.79006         0.17645
C         42.59767        35.97512         0.66238
C         41.58528        35.26452        -0.26654
C         42.71738        37.43997         0.25428
C         41.57033        38.16299         0.08952
C         42.87245        40.33888         0.41764
C         41.60804        39.66848        -0.09458
C         42.90382        41.66354         0.65414
C         41.65846        42.42054         1.01616
C         42.83734        44.39110        -0.18007
C         41.53801        43.66964         0.10195
C         42.66456        45.67186        -0.90806
C         41.29131        46.24849        -0.99541
C         42.64812        48.98150        -0.56474
C         41.50240        49.78667        -0.31592
C         43.78253        25.08976        -0.22154
C         45.21385        27.18191        -0.06805
C         44.00054        26.46881        -0.15477
C         45.23935        28.58506         0.02911
C         44.04119        29.37403        -0.44627
C         45.25682        31.56491         0.16750
C         43.97407        30.76304         0.23948
C         45.28140        32.94585         0.40204
C         43.95075        33.59931         0.84549
C         45.26743        35.88778         0.92609
C         43.94134        35.17077         0.88179
C         45.29143        37.33237         0.45524
C         43.99159        38.12706         0.73359
C         45.43058        40.22428         0.68684
C         44.12186        39.55765         0.13890
C         45.47269        41.75105         0.61927
C         44.16200        42.47274         0.63640
C         45.29184        44.50781        -0.53445
C         44.05328        43.82660         0.02225
C         45.13742        46.09614        -0.28103
C         43.84517        46.64359        -0.88734
C         43.39534        48.02347        -0.75161
C         47.58314        27.27518         0.12400
C         46.54185        26.59072         0.02256
C         47.82608        28.66461         0.19083
C         46.46933        29.35467         0.48139
C         47.76067        31.54834         0.44076
C         46.53170        30.79188        -0.10127
C         47.72015        32.98276        -0.06951
C         46.46427        33.71198         0.19690
C         47.84886        35.87825         0.68983
C         46.56816        35.03981         0.93046
C         47.88560        37.38103         0.59642
C         46.59748        38.06538         0.21300
C         47.95254        40.30758         0.32826
C         46.62668        39.59529        -0.06696
C         47.86452        41.76733        -0.12858
C         46.69663        42.42942         0.09963
C         47.88418        44.69015        -0.09215
C         46.59921        43.92126         0.02114
C         47.55052        46.03063        -0.62351
C         46.47240        46.61179        -0.77201
C         50.33613        28.86304        -0.05680
C         49.00145        29.38388         0.06083
C         50.27218        31.55338         0.09105
C         49.05767        30.83062         0.09552
C         50.24906        32.94809         0.34119
C         49.06998        33.71795        -0.04339
C         50.38109        35.90214         0.29937
C         49.05175        35.24753        -0.03747
C         50.44561        37.30130         0.05212
C         49.25412        38.15119         0.49018
C         50.45382        40.31270        -0.20375
C         49.13414        39.50560        -0.29762
C         50.32764        41.63820        -1.00459
C         49.01515        42.49979        -0.82105
C         50.40286        44.44825        -0.02891
C         49.15864        43.94947        -0.22660
C         51.46243        29.37091         0.02884
C         52.66070        31.61297         0.57272
C         51.66603        30.84366        -0.24107
C         52.57933        32.81415         0.83604
C         51.39804        33.71196         1.03171
C         52.72661        35.86683         0.39747
C         51.53691        35.11663         0.50472
C         52.73161        37.08911         0.05276
C         51.67748        37.99079        -0.11614
C         52.87768        40.26246        -0.55966
C         51.68740        39.36014        -0.75353
C         52.86177        41.50579        -0.50294
C         51.89764        42.52342        -0.46843
C         51.50569        43.73392        -0.16477
O         47.17847        44.57521         1.20463
O         33.66069        30.27554         2.06249
O         33.46718        35.44482        -1.77310
O         42.30292        31.26775        -1.66733
O         38.65643        30.32973        -1.43121
O         40.24529        36.85588        -1.52684
O         45.87474        37.39111        -0.87831
O         47.97984        36.68773         1.88922
O         36.96330        40.29369        -0.82513
O         43.43758        45.98134        -2.12938
O         48.45126        33.19426        -1.28903
O         49.64170        38.45378         1.81259
O         35.31907        32.49900        -1.41895
O         35.31054        36.33345         1.36194
O         41.63146        39.89864        -1.49948
O         35.86462        31.39723         1.92966
O         44.97677        42.39939         1.85243
O         44.51751        35.64672         2.14356
O         36.64628        28.93030        -0.95820
O         35.89030        42.03062         2.18354
O         46.71970        34.55552         2.29577
H         47.07859        35.30409         2.82804
O         40.39035        33.05220        -1.88240
H         40.79920        33.90624        -2.16232
O         31.75715        33.70283        -2.31268
H         31.96440        32.78512        -2.59527
O         38.27305        31.74613         1.94216
H         37.48066        31.81379         2.52306
O         43.68541        30.45866         1.63235
H         43.61034        31.32737         2.11011
O         38.12221        27.35584         1.96881
H         38.34763        26.47661         2.34105
O         46.72092        30.66314        -1.52138
H         45.89747        30.26504        -1.91013
O         37.87410        36.24297        -2.06518
H         38.70638        36.73892        -2.24958
O         45.57967        39.88796         2.07781
H         46.46028        40.25966         2.36298
O         39.11840        42.67549         2.63703
H         40.05870        42.86995         2.89522
O         33.68514        42.62965        -0.66166
H         34.48661        43.06729        -1.04664
O         41.19222        33.72915         1.57284
H         41.67916        34.43017         2.07177
O         41.61861        51.10209        -0.08705
H         40.74742        51.50060         0.10762
O         42.08112        35.31123        -1.61241
H         41.87218        36.20768        -1.97125
O         31.90766        39.70249         2.30588
H         32.10238        38.72713         2.30245
O         48.51243        42.75683        -2.16893
H         47.81892        42.09201        -2.37740
O         41.22734        43.10310        -1.18362
H         41.06511        43.81986        -1.83111
O         46.36471        29.44719         1.93122
H         46.23102        28.54251         2.28672
O         36.36407        43.75094        -0.96935
H         36.45240        44.64999        -1.35919
O         31.97817        30.53637        -2.14257
H         32.62788        29.81025        -2.23613
O         44.25676        29.54055        -1.87584
H         43.50769        30.09752        -2.21781
O         48.86585        39.22993        -1.66431
H         49.70741        38.91981        -2.08843
O         45.38507        44.21087        -1.93416
H         44.62539        44.62682        -2.40538
O         45.05137        46.31373         1.10843
H         45.86572        45.92268         1.51889
O         43.76155        38.15573         2.16126
H         44.47682        38.69068         2.58849
O         43.69085        33.14731         2.18433
H         44.28846        33.67118         2.76880
O         42.58606        27.23959         1.59886
H         42.80430        28.14943         1.90283
O         43.45116        33.48556        -1.39440
H         42.91632        33.08965        -2.11847
O         33.22893        40.00968        -0.75924
H         33.36773        41.00496        -0.87948
O         40.65023        31.39423         1.42297
H         40.11478        32.00797         1.97724
O         46.51826        39.85408        -1.46454
H         46.06140        39.08345        -1.87860
O         50.72372        40.67287         1.13104
H         50.57377        39.85930         1.69691
O         37.78768        44.89949         2.27080
H         38.23171        44.12704         2.72838
O         31.70642        31.71410         1.44904
H         31.95886        31.00008         2.08276
O         30.88770        35.24733         0.83211
H         30.74369        36.19229         1.06897
O         33.15451        37.48142         1.70497
H         33.82448        36.83883         2.07379
O         48.07313        40.40930         1.75206
H         48.64092        39.64512         2.09664
O         30.59877        42.11002         2.63483
H         30.76174        41.18497         2.92079
O         34.14871        43.81750         2.79110
H         34.45573        44.66833         3.16513
O         33.34188        37.88342        -1.94274
H         33.73694        37.05263        -2.33216
O         31.53350        39.72185        -2.57018
H         32.01450        38.92157        -2.90310
O         38.93147        43.64000        -0.96198
H         38.18845        43.02201        -1.14390
O         40.65598        44.84834         2.03949
H         40.39641        45.78386         2.23359
O         36.08507        34.85246        -1.92949
H         35.82116        33.88596        -2.02956
O         30.79964        38.21039         0.62725
H         29.89787        38.59633         0.61208
O         41.80055        42.74348         2.41898
H         42.73124        43.00237         2.59426
O         51.52585        39.08001        -2.14161
H         51.63362        39.92059        -2.64422
O         51.89643        31.05131        -1.60529
H         52.77212        30.68807        -1.84774
O         41.11780        47.15601        -1.98609
H         41.93484        47.14819        -2.53915
O         42.00935        36.09446         1.98386
H         42.64818        36.64676         2.50481
O         51.04742        33.79929         2.41610
H         51.61475        34.47642         2.84068
O         41.52885        24.67530        -2.02250
H         40.70146        25.01542        -2.42190
O         48.82710        35.66900        -1.41478
H         48.53466        34.87970        -1.93252
O         47.72405        31.69512         1.87012
H         47.39729        30.85614         2.27545
O         36.38146        34.17062         1.67641
H         36.29688        33.32462         2.17582
O         39.30261        47.09304         1.76834
H         38.56461        46.63097         2.24067
O         44.16362        39.43173        -1.28980
H         43.23230        39.59968        -1.64786
O         50.54558        41.44265        -2.35362
H         49.97282        42.09604        -2.83825
O         38.76943        35.55844         1.43771
H         37.95375        35.09488         1.75837
O         40.21446        28.43929        -2.09647
H         39.78560        29.24601        -2.47257
