         621
 CSIRO Nanostructure Databank - Neutral Graphene Oxide Data Set
C          6.01374        31.75430         1.01612
C          6.05189        33.12430         1.02237
C          8.30371        27.43845         0.33074
C          8.28564        28.82770         0.23325
C          7.13476        29.58933         0.63998
C          8.14192        31.63975        -0.30446
C          7.08994        30.95811         0.49138
C          8.09563        33.15162        -0.41854
C          7.13399        33.87211         0.44131
C          8.38314        36.00168         0.18260
C          7.31848        35.21330         0.72152
C          8.48407        37.33189         0.55006
C         10.70800        23.10310        -0.00973
C         10.66207        24.49988        -0.06858
C          9.48484        25.26788         0.14373
C         10.71472        27.40139        -0.14459
C          9.48539        26.67520         0.08271
C         10.70275        28.82585        -0.26566
C          9.47756        29.54768        -0.17860
C         10.63770        31.64429        -0.73815
C          9.43783        30.93460        -0.46442
C         10.59227        33.10279        -1.12462
C          9.31794        33.88847        -0.92657
C         10.59988        36.17794        -1.09927
C          9.22707        35.43328        -0.95093
C         10.70221        37.60517        -0.58986
C          9.56022        38.19225         0.16602
C         10.79976        40.31618         0.40266
C          9.60191        39.53040         0.51981
C         10.82431        41.69851         0.57040
C         13.25496        18.81987        -0.05873
C         13.19543        20.23198         0.05294
C         11.96837        20.95015         0.01637
C         13.18873        23.05940         0.10982
C         11.94063        22.35859         0.00023
C         13.23583        24.49767        -0.18973
C         11.90190        25.24114        -0.37079
C         13.17423        27.38942        -0.34027
C         11.93327        26.70230        -0.26933
C         13.17620        28.81291        -0.40096
C         11.92285        29.53891        -0.44258
C         13.12929        31.70479        -0.57721
C         11.86347        30.94779        -0.63070
C         13.15767        33.10385        -1.12530
C         11.88573        33.85623        -1.34223
C         13.19367        36.12718        -1.05447
C         11.87533        35.40105        -1.55864
C         13.25512        37.59127        -0.67764
C         11.99881        38.30564        -0.39533
C         13.29639        40.25589         0.37239
C         12.04041        39.58835         0.12369
C         13.27680        41.61280         1.02147
C         12.04912        42.43745         0.69267
C         13.32582        44.55907         0.97866
C         12.11145        43.82093         0.70357
C         13.41659        45.93463         0.91539
C         15.77072        14.58791        -0.33960
C         15.76666        15.99361        -0.38655
C         14.55210        16.72526        -0.26757
C         15.71345        18.89744        -0.06188
C         14.49333        18.14227        -0.13572
C         15.68453        20.27348         0.18750
C         14.42374        20.95530         0.22337
C         15.61723        23.10787         0.67154
C         14.38515        22.36876         0.32290
C         15.63098        24.62350         0.59362
C         14.42869        25.29566         0.07678
C         15.66820        27.40350        -0.09415
C         14.42544        26.67323        -0.17501
C         15.65005        28.80974        -0.28276
C         14.42673        29.48939        -0.41050
C         15.69026        31.63798        -0.88871
C         14.42833        30.96509        -0.44679
C         15.68414        33.15606        -0.95271
C         14.38321        33.84941        -0.69559
C         15.65960        36.01319        -0.25200
C         14.34704        35.32236        -0.51908
C         15.68946        37.48758        -0.16178
C         14.52097        38.19305        -0.15878
C         15.76962        40.28761         0.37298
C         14.50925        39.59892         0.21497
C         15.77065        41.70086         0.65711
C         14.56825        42.36303         0.86043
C         15.85896        44.48224         1.49824
C         14.53891        43.76367         1.29446
C         15.83471        45.95353         1.46738
C         14.64494        46.67345         1.18784
C         15.79746        48.88873         1.58233
C         14.67055        48.08307         1.10941
C         15.96284        50.30715         1.26333
C         18.30466        10.26703        -0.55571
C         18.26705        11.67727        -0.60118
C         17.06170        12.37894        -0.53597
C         18.30134        14.64474        -0.77137
C         16.94826        13.82530        -0.70827
C         18.24284        16.06349        -0.39755
C         17.02499        16.72105        -0.40780
C         18.21114        18.83754         0.19846
C         17.00237        18.23202        -0.47670
C         18.18424        20.28468         0.56044
C         16.91289        21.03959         0.40863
C         18.12465        23.14141         1.14759
C         16.90099        22.38741         0.64378
C         18.14782        24.62654         0.75648
C         16.92482        25.33996         0.52827
C         18.13777        27.49207         0.32269
C         16.88835        26.71240         0.22847
C         18.16815        28.80189        -0.32437
C         16.93015        29.60459        -0.07430
C         18.15334        31.68057        -0.83009
C         16.97147        30.97190        -0.69923
C         18.14735        33.12235        -0.83251
C         16.96629        33.83176        -0.77278
C         18.16998        36.04684        -0.71583
C         16.94896        35.25954        -0.37253
C         18.21068        37.48267        -0.38912
C         16.99942        38.11261         0.27412
C         18.20334        40.31531         0.04918
C         16.98700        39.61302         0.16746
C         18.22393        41.73388         0.28407
C         17.03561        42.41084         0.68834
C         18.31218        44.47390         0.94842
C         17.09547        43.77182         1.07440
C         18.39440        45.84726         1.49524
C         17.09760        46.61635         1.77229
C         18.37573        48.85914         1.75284
C         17.13618        48.10681         1.90976
C         18.35740        50.25564         1.80886
C         17.12268        51.01276         1.56369
C         18.04296        53.36414         1.83538
C         17.15472        52.45261         1.28053
C         18.29097        54.68711         1.32769
C         20.77536         5.96481        -1.07252
C         20.69642         7.31460        -0.49262
C         19.49784         8.13762        -0.65134
C         20.78596        10.22191        -0.25149
C         19.51872         9.51985        -0.49073
C         20.79602        11.67509        -0.24505
C         19.57328        12.38485        -0.67362
C         20.77367        14.58753        -0.08862
C         19.59901        13.90141        -0.67377
C         20.71119        15.98593         0.08787
C         19.51201        16.75513        -0.15457
C         20.74392        18.91317         0.06002
C         19.50136        18.14234        -0.01743
C         20.72757        20.43858         0.09080
C         19.43812        21.06743         0.58558
C         20.65438        23.16765         0.77730
C         19.40934        22.41808         0.78497
C         20.62129        24.56524         0.80798
C         19.38482        25.28832         0.73477
C         20.67571        27.40813         0.14424
C         19.43798        26.76412         0.59861
C         20.69634        28.68809        -0.55581
C         19.40159        29.41482        -0.76406
C         20.74241        31.66856        -0.72993
C         19.45973        30.97004        -0.94550
C         20.73225        33.09377        -0.68018
C         19.43825        33.82599        -0.50123
C         20.73313        36.00499        -0.93763
C         19.43586        35.27134        -0.94504
C         20.67070        37.50016        -0.77507
C         19.38955        38.17740        -0.47211
C         20.63912        40.29911        -0.39641
C         19.43681        39.61441        -0.23907
C         20.63017        41.79699        -0.51849
C         19.43453        42.45731         0.13632
C         20.68149        44.61124         0.11636
C         19.46631        43.82120         0.44118
C         20.73643        46.05385         0.48528
C         19.65813        46.64039         1.34201
C         20.81017        48.91579         1.02143
C         19.65795        48.14849         1.52571
C         20.83139        50.28823         1.30418
C         19.65213        50.91156         1.85134
C         21.02133        52.90062         2.27118
C         19.83695        52.17094         2.41523
C         20.81997        55.08326         1.72795
C         19.47637        55.47350         1.26866
C         20.62436        57.31642         0.05729
C         19.44335        56.68168         0.52097
C         20.63608        58.57980        -0.53725
C         23.41890         3.31846        -1.47387
C         22.22364         4.01088        -1.66948
C         23.16878         6.26952        -1.33459
C         22.01052         5.40540        -1.37140
C         23.28055         7.44703        -0.62398
C         22.00062         8.04998        -0.16260
C         23.23144        10.19635         0.33805
C         21.96300         9.51558        -0.10844
C         23.29261        11.66275        -0.10743
C         21.96567        12.39916        -0.03173
C         23.19940        14.50143         0.48888
C         21.96488        13.82873         0.12610
C         23.17031        15.91994         0.91157
C         21.85120        16.67961         0.71439
C         23.11279        18.88681         1.10771
C         21.97365        18.14964         0.49646
C         23.17272        20.35354         0.97745
C         21.94606        21.06491         0.75200
C         23.13728        23.18245         1.07366
C         21.90157        22.45605         0.90088
C         23.14714        24.54166         0.91859
C         21.88947        25.30102         0.92724
C         23.19384        27.47816         0.25222
C         21.92114        26.79705         0.52821
C         23.22884        28.82284        -0.03891
C         22.01585        29.50026        -0.54631
C         23.19218        31.68613        -0.33101
C         21.98252        30.98089        -0.56677
C         23.19018        33.13312        -0.35871
C         21.96580        33.83277        -0.57683
C         23.15277        35.98272        -0.40070
C         21.97549        35.26155        -0.60190
C         23.15124        37.46737        -0.10222
C         21.90768        38.21875        -0.45783
C         23.17539        40.30718        -0.60212
C         21.90827        39.60350        -0.47797
C         23.20236        41.73287        -0.54782
C         21.95955        42.40731        -0.11530
C         23.22513        44.61165        -0.33478
C         21.99592        43.89269         0.04247
C         23.12961        46.08536        -0.42270
C         22.06074        46.74690         0.40802
C         23.10040        49.05490        -0.10611
C         22.03810        48.23530         0.55455
C         23.13370        50.48934         0.31326
C         22.01350        51.07753         1.08815
C         23.18994        53.28909         0.86410
C         22.08739        52.42289         1.47953
C         23.29559        54.75540         1.40971
C         21.97457        55.46708         1.11426
C         23.17608        57.21957        -0.30685
C         21.89075        56.54585         0.11712
C         23.11467        58.62502        -0.71454
C         21.85328        59.25299        -0.89536
C         23.02470        61.27629        -1.60187
C         21.83495        60.59577        -1.35556
C         24.67813         3.82092        -1.06880
C         25.95421         5.99003        -0.55200
C         25.02339         5.18498        -1.20424
C         25.82666         7.42986        -0.49883
C         24.55031         8.12160        -0.45069
C         25.72847        10.19645         0.10187
C         24.53360         9.48465        -0.03585
C         25.73970        11.62150         0.51025
C         24.43641        12.36517         0.57464
C         25.67050        14.56396         0.78043
C         24.40700        13.83609         0.56569
C         25.65293        16.04586         0.78558
C         24.42957        16.68066         0.97444
C         25.67163        18.87542         1.23036
C         24.41876        18.11270         1.29358
C         25.64233        20.28812         1.31026
C         24.38752        20.99511         1.24450
C         25.67587        23.16957         1.22006
C         24.38226        22.46740         1.54784
C         25.68392        24.54270         0.95605
C         24.42012        25.23356         0.63948
C         25.71339        27.42546         0.43869
C         24.44114        26.69967         0.31650
C         25.68999        28.86765         0.28328
C         24.47185        29.56001         0.01530
C         25.66685        31.69487         0.06623
C         24.44848        30.97751        -0.10925
C         25.62088        33.16786         0.21904
C         24.38240        33.88014        -0.15344
C         25.61353        36.07088        -0.17098
C         24.38843        35.29689        -0.19531
C         25.59946        37.43087        -0.51921
C         24.39662        38.16860        -0.57075
C         25.63429        40.29165        -0.97864
C         24.38910        39.57339        -0.76258
C         25.58698        41.77363        -1.31607
C         24.36508        42.47735        -0.76997
C         25.62714        44.64347        -1.05205
C         24.35754        43.91690        -0.74494
C         25.65089        46.14949        -0.99070
C         24.34360        46.88743        -0.81079
C         25.69019        48.97693        -0.04882
C         24.41139        48.42006        -0.65303
C         25.72465        50.37072         0.19939
C         24.47884        51.09746         0.56141
C         25.81774        53.25415         0.91722
C         24.51188        52.52563         0.98060
C         25.82005        54.75128         0.88678
C         24.51470        55.44425         0.79057
C         25.68777        57.36137        -0.24033
C         24.46872        56.64463         0.13892
C         25.58872        58.65382        -0.74604
C         24.32791        59.32453        -0.94018
C         24.26322        60.66084        -1.39434
C         27.01081         8.17434        -0.29121
C         28.21840        10.32737         0.00754
C         27.00069         9.56618        -0.08972
C         28.23861        11.72413         0.06857
C         26.89813        12.42952        -0.06437
C         28.17251        14.62177         0.16304
C         26.95352        13.84016         0.52704
C         28.13362        16.11459         0.39682
C         26.87537        16.77507         0.78744
C         28.13790        18.89292         1.06224
C         26.89402        18.17671         1.02598
C         28.12654        20.30381         1.25093
C         26.88739        21.00984         1.32119
C         28.13288        23.15875         1.18429
C         26.89580        22.44784         1.27848
C         28.13016        24.56632         0.99009
C         26.90110        25.26232         0.82774
C         28.16050        27.41038         0.73776
C         26.87773        26.69840         0.63782
C         28.16898        28.90465         0.58720
C         26.89234        29.60335         0.34593
C         28.18575        31.72119         0.42811
C         26.88307        31.01140         0.27674
C         28.21228        33.22472         0.37047
C         26.89017        33.94829         0.43915
C         28.15099        36.05347        -0.26637
C         26.90651        35.47563         0.36841
C         28.14035        37.55209        -0.42624
C         26.83327        38.08746        -1.10838
C         28.08501        40.32217        -1.23200
C         26.82817        39.61037        -1.04483
C         28.10798        41.75306        -1.21379
C         26.88266        42.50866        -1.02638
C         28.18522        44.61634        -0.79094
C         26.89925        43.87492        -0.89293
C         28.17903        46.11302        -0.73225
C         26.87555        46.76143        -0.30862
C         28.12066        48.96822        -0.21123
C         26.90589        48.27732        -0.26590
C         28.15072        50.35929         0.06058
C         26.94584        51.06151         0.25586
C         28.27338        53.24303         0.40843
C         26.94220        52.56935         0.15985
C         28.26555        54.65365         0.38523
C         27.05079        55.40282         0.36645
C         26.95779        56.71511        -0.08504
C         29.43309        12.47661         0.17235
C         30.63533        14.65477         0.34962
C         29.46562        13.89695         0.24005
C         30.63545        16.08276         0.52156
C         29.40450        16.80666         0.61938
C         30.61794        18.89830         1.05144
C         29.38357        18.18849         0.91268
C         30.59740        20.28529         1.30467
C         29.37636        21.01838         1.32769
C         30.60416        23.17965         1.25812
C         29.38077        22.45066         1.29835
C         30.63751        24.55671         0.95472
C         29.38784        25.27151         0.82887
C         30.64626        27.31694         0.23750
C         29.39620        26.63183         0.58017
C         30.65106        28.82474         0.00837
C         29.41386        29.59740         0.20307
C         30.67979        31.67824        -0.03962
C         29.43523        30.96762         0.12782
C         30.61480        33.11124        -0.44136
C         29.38645        33.90370        -0.20881
C         30.62288        36.05170        -0.51709
C         29.33041        35.30814        -0.40762
C         30.63883        37.53606        -0.81091
C         29.31034        38.09129        -1.29366
C         30.48442        40.27810        -1.70104
C         29.30047        39.60495        -1.33149
C         30.35898        41.63459        -2.03643
C         29.29557        42.43683        -1.57927
C         30.68426        44.72850        -1.56362
C         29.45410        43.88731        -1.26075
C         30.63145        46.16925        -1.11813
C         29.33995        46.82015        -0.78978
C         30.61153        48.88779         0.00817
C         29.39300        48.34146        -0.72972
C         30.58252        50.27205         0.37979
C         29.42378        51.04771         0.26717
C         29.43775        52.46250         0.45318
C         31.84753        16.79753         0.67367
C         33.10098        18.89894         1.02492
C         31.87224        18.18756         0.92589
C         33.14825        20.27795         1.30757
C         31.86919        20.96551         1.57966
C         33.13858        23.19192         1.31877
C         31.86941        22.50128         1.56024
C         33.12872        24.57676         1.07620
C         31.88073        25.27051         0.89445
C         33.10948        27.40368         0.61262
C         31.90970        26.65466         0.58236
C         33.09070        28.83450         0.45353
C         31.91882        29.54247         0.19590
C         33.17140        31.67526         0.00389
C         31.89500        30.98575         0.06800
C         33.15100        33.18074        -0.13129
C         31.90421        33.80809        -0.79481
C         32.86195        36.03537        -1.40990
C         31.84291        35.30998        -0.86253
C         33.02899        37.46768        -1.38383
C         31.86925        38.20477        -1.29169
C         33.17462        40.38319        -1.58953
C         31.82769        39.62206        -1.72323
C         33.24470        41.85917        -1.36038
C         32.28013        42.68422        -1.87861
C         33.20228        44.73842        -0.83593
C         32.11612        44.11391        -1.62543
C         33.07665        46.00298        -0.31525
C         31.90484        46.84576        -0.56782
C         31.75090        48.13043         0.14240
C         34.34224        21.02445         1.34305
C         35.58096        23.18094         1.30702
C         34.36747        22.45369         1.36270
C         35.60250        24.59298         1.18579
C         34.36010        25.30933         1.02620
C         35.59153        27.44163         0.90405
C         34.35400        26.71329         0.86347
C         35.60488        28.85054         0.78461
C         34.30791        29.61885         0.87572
C         35.64475        31.67895         0.29849
C         34.35169        31.01941         0.30804
C         35.69788        33.10423         0.05388
C         34.51784        33.73964        -0.46472
C         35.66676        35.92931        -0.60361
C         34.70349        34.95651        -1.07814
C         35.67930        37.37014        -1.03134
C         34.39098        38.10452        -1.40576
C         35.52168        40.24330        -0.43848
C         34.31754        39.57001        -1.02611
C         35.63743        41.76336        -0.39303
C         34.34986        42.51473        -0.68010
C         34.31354        43.87443        -0.46941
C         36.81552        25.32422         1.19340
C         38.04872        27.47159         1.14243
C         36.83275        26.73019         1.06917
C         38.06896        28.85967         0.99508
C         36.82406        29.55457         0.78119
C         38.13616        31.62730         0.32727
C         36.82924        30.96985         0.51899
C         38.17840        33.12841         0.10589
C         36.89544        33.81954         0.09549
C         38.15899        36.03848         0.06361
C         36.89046        35.27831         0.06921
C         38.09190        37.39884        -0.16200
C         36.86029        38.12261        -0.47493
C         36.78836        39.47720        -0.31119
C         39.29859        29.61831         1.11747
C         40.54289        31.77878         0.96360
C         39.35305        30.96593         0.83941
C         40.56515        33.13850         0.77376
C         39.39426        33.91021         0.42755
C         39.36697        35.29296         0.35504
O         19.38201        30.05894        -2.08262
O         16.36042        35.45708         0.94589
O         26.09560        33.53722         1.59055
O         25.75204        45.49106        -2.26544
O         28.43063        32.51153         1.64568
O         22.46022        56.28823        -1.20609
O         28.25416        28.30021         1.93687
O         12.64737        33.23601        -2.45436
O         34.44137        39.73665         0.42929
O         13.54692        37.11696        -2.05726
O         17.85111        45.93353         2.83843
O         24.22998         5.88464        -2.14788
O         26.11256        53.98441         2.13401
O         18.05415        19.22665         1.60192
O         24.67238        48.92419        -1.93204
O         10.40361        37.31601        -2.00241
O         35.81216        35.86550         0.85958
O         14.06381        34.43584         0.61289
O          7.52920        32.30629        -1.46135
O         21.88067        26.33384         1.95985
O         23.32254        46.55925        -1.78797
O         18.73610        27.49107         1.69552
O         31.37420        42.19604        -2.81268
O          9.67919        33.37314        -2.24039
O         38.33794        32.19163        -1.02160
O         20.35958        45.64910        -0.87267
O         20.93123        54.17976         2.79938
O         21.77296        18.46082        -0.91480
O         23.51953        18.44661         2.42448
O         13.79872        31.59070         0.72645
O         24.51796        51.49227         2.00467
O         15.43354        23.92700         1.90001
O         29.20989        37.59208        -2.60703
O         35.35857        37.69827        -2.41582
O         15.11438        43.91918         2.64587
O         25.09622        11.86238         1.78875
O         21.55062        28.78117        -1.74011
O         18.76950        52.90005         2.95778
O         22.65589        50.10255        -1.01565
O         30.72455        37.06317         0.56047
O         20.85272        36.86692        -2.11374
O         31.19587        33.15948        -1.86117
O         22.07234        42.98638         1.21327
O         28.03182        15.49871        -0.97393
O         26.52330        14.01061         1.88648
O         20.09768        47.19449         2.59656
O         26.53360        12.55056        -1.41912
O         29.13868        44.05503         0.17587
O         32.70277        39.91164        -2.86708
O         24.44251        25.68777        -0.78265
O         16.24631        48.56628         2.94404
O         12.64943        24.75280        -1.52365
O         15.57927        32.34373        -2.16495
O         30.61399        27.89394        -1.13110
O         21.28132         7.35901         0.90257
O         31.48333        46.98697        -1.97659
O         19.85228        13.14898        -1.89902
O         22.59013        47.33424         1.61784
O         33.85379        35.33353        -2.10324
O         18.60194        35.63761        -2.07015
O         17.56855        14.33302        -1.95293
O         31.85387        21.73901         2.81796
O         22.23181        16.17844         2.01665
O         19.71737        33.72955         0.90207
O         31.42248        44.68663        -2.79552
O         36.63486        42.18616        -1.33856
H         36.26450        42.11304        -2.24235
O         13.19576        41.34799         2.47205
H         13.55278        42.13445         2.94145
O         28.16272        38.17316         0.86402
H         28.09936        37.47763         1.55931
O         23.65341        11.69151        -1.51952
H         24.59451        12.00066        -1.62642
O         11.88497        35.51302        -2.98116
H         11.77216        36.46530        -3.20138
O         20.80034        20.85360        -1.31168
H         21.42225        20.23606        -1.76069
O         17.15088        37.86613         1.70824
H         16.96642        36.90403         1.85746
O         24.29314        22.54119         3.02039
H         23.54560        21.97345         3.30635
O         18.02563        23.12316         2.59952
H         17.13520        23.48666         2.82436
O         23.19324        37.54273         1.37719
H         24.05364        37.16594         1.66490
O         26.67160        46.35599         1.08878
H         27.43593        46.66506         1.61974
O         23.12472        10.18751         1.78595
H         22.97912         9.26323         2.07881
O         17.17314        18.55427        -1.89741
H         16.49764        18.05718        -2.40570
O         26.74841        37.71648        -2.48083
H         27.68867        37.70576        -2.87096
O         25.45004        41.83786        -2.77531
H         24.68010        41.28918        -3.03530
O         16.98077        29.88865         1.37493
H         17.23177        29.06487         1.85050
O         20.53652        42.09059        -1.95213
H         19.74504        41.63560        -2.30989
O         22.88376        53.43367        -0.53545
H         22.82923        52.55103        -0.96142
O         34.12457        29.83995         2.33219
H         34.07989        28.95774         2.75974
O          8.45759        35.72412        -2.13073
H          8.84598        35.19888        -2.86588
O         23.51023        54.71324         2.82487
H         24.41579        54.35009         2.98283
O         26.94711        35.93827         1.76837
H         26.55262        35.21355         2.31279
O         29.49987        48.80942        -2.10322
H         30.28853        48.35751        -2.49183
O         32.95504        33.65001         1.25317
H         33.70491        33.32768         1.79833
O         26.59961        52.83898        -1.24120
H         27.12699        52.23907        -1.81140
H          5.17547        31.23245         1.50090
H          5.25119        33.68695         1.52451
H          7.38340        26.90942         0.62054
H          6.30283        29.06477         1.13410
H          6.62046        35.70805         1.41502
H          7.73180        37.73963         1.24417
H          9.76713        22.54423         0.10777
H          8.54128        24.74500         0.36118
H          8.71462        39.99147         0.98034
H          9.87037        42.24559         0.63181
H         12.32098        18.24384        -0.13825
H         11.02447        20.38988        -0.05846
H         11.19487        44.39936         0.50575
H         12.51832        46.51978         0.66567
H         14.85895        14.05185        -0.03850
H         13.60602        16.16346        -0.26435
H         13.79671        48.60828         0.69546
H         15.10880        50.84060         0.81914
H         17.35462         9.71333        -0.59835
H         16.13783        11.81599        -0.33247
H         16.43860        52.81623         0.52598
H         17.47521        55.07444         0.69188
H         19.84830         5.38987        -1.21939
H         18.56278         7.64656        -0.96121
H         18.46905        57.12422         0.26188
H         19.68858        59.12980        -0.64399
H         23.33739         2.21981        -1.51414
H         21.32445         3.40500        -1.86141
H         22.99080        62.31470        -1.96006
H         20.86979        61.09911        -1.50935
H         25.39547         3.12199        -0.61450
H         26.79860         5.53196        -0.01507
H         26.51012        59.19960        -0.99998
H         25.19329        61.21152        -1.59431
H         27.97630         7.64929        -0.34248
H         29.17066         9.77216         0.03176
H         29.22022        55.19367         0.28304
H         27.86228        57.24201        -0.42527
H         30.39428        11.93635         0.18572
H         31.60685        14.13708         0.36299
H         31.52249        50.74790         0.70018
H         30.40747        52.95857         0.61619
H         32.80081        16.25433         0.59306
H         34.04210        18.35378         0.85762
H         33.83066        46.37209         0.39548
H         32.62974        48.54582         0.66042
H         35.29971        20.49144         1.24019
H         36.53573        22.63680         1.36332
H         36.02180        42.05239         0.61910
H         35.17879        44.35511         0.01064
H         37.76659        24.78448         1.31580
H         38.99067        26.92973         1.31522
H         39.01008        38.00099        -0.07381
H         37.67495        40.03181         0.03255
H         40.20663        29.08695         1.44178
H         41.47424        31.27071         1.25693
H         41.51153        33.68010         0.92323
H         40.29624        35.85818         0.52836
