         732
 CSIRO Nanostructure Databank - Neutral Graphene Oxide Data Set
C         23.24612        24.52356         2.76545
C         22.14121        25.26675         3.06782
C         23.30443        27.41903         2.87096
C         22.15898        26.69712         3.13295
C         23.35048        28.87289         2.71298
C         22.17010        29.66225         3.05446
C         23.40349        31.76962         2.75207
C         22.17943        31.01191         3.08826
C         23.40432        33.26669         2.54781
C         22.16654        34.04340         2.68817
C         23.24825        36.01672         1.71361
C         22.10472        35.33108         2.27205
C         23.19220        37.40014         1.37218
C         22.00066        38.15915         1.58949
C         23.08039        40.19048         0.78754
C         21.94807        39.49692         1.30959
C         23.01319        41.60156         0.51869
C         21.81272        42.34776         0.67778
C         22.92928        44.40192        -0.01504
C         21.76773        43.69428         0.39439
C         22.88326        45.82946        -0.29449
C         21.66275        46.52787        -0.36812
C         22.82738        48.60138        -0.81840
C         21.64031        47.89548        -0.63627
C         25.67454        23.18700         1.59173
C         25.72665        24.50207         2.01653
C         24.56718        25.14917         2.69004
C         25.71960        27.33911         2.07936
C         24.57265        26.68230         2.75597
C         25.70032        28.80419         1.82075
C         24.49180        29.52346         2.27964
C         25.64501        31.68562         1.44455
C         24.46134        30.98173         2.03822
C         25.68269        33.17230         1.50724
C         24.52421        33.89925         1.81102
C         25.61297        35.95769         0.99100
C         24.45898        35.29503         1.51909
C         25.54871        37.33079         0.62212
C         24.33418        38.05752         0.82084
C         25.41379        40.14141        -0.01831
C         24.27315        39.46576         0.52712
C         25.36331        41.52072        -0.20669
C         24.17979        42.27692         0.07503
C         25.36643        44.41158        -0.42261
C         24.14565        43.69421        -0.14501
C         25.35463        45.83695        -0.48793
C         24.09995        46.54222        -0.49811
C         25.32548        48.66807        -0.88217
C         24.07213        47.94559        -0.74629
C         25.36726        50.05630        -1.15115
C         27.99286        23.25206         0.79620
C         26.77933        22.58039         0.96078
C         28.14576        24.57178         1.33856
C         26.96768        25.24080         1.87030
C         28.25336        27.40713         2.27305
C         26.99626        26.61388         2.05764
C         28.18677        28.84675         1.72989
C         26.99884        29.51961         1.62207
C         28.17647        31.76258         1.31628
C         26.93298        30.93474         1.04793
C         28.13380        33.13077         1.19591
C         26.87016        33.84844         1.12909
C         28.02678        35.92859         0.43328
C         26.84115        35.24123         0.87814
C         27.90557        37.27081        -0.05740
C         26.70116        37.95269         0.03070
C         27.88679        40.05047        -0.70527
C         26.55333        39.31686        -0.60384
C         27.81042        41.50722        -0.99200
C         26.52418        42.24390        -0.77336
C         27.80821        44.40270        -0.72108
C         26.57859        43.71389        -0.62510
C         27.81849        45.82877        -0.60900
C         26.57749        46.54257        -0.57145
C         27.77051        48.70918        -0.66699
C         26.55684        47.98395        -0.69516
C         27.79690        50.09441        -0.91920
C         26.56618        50.74240        -1.20197
C         29.85489        20.99599        -1.54139
C         28.87603        21.48059        -0.69550
C         30.33727        23.34606        -0.04060
C         29.09073        22.67264         0.04029
C         30.48741        24.66648         0.55784
C         29.36438        25.26017         1.22443
C         30.73638        27.40059         1.53900
C         29.49485        26.61829         1.82176
C         30.66119        28.89741         1.60749
C         29.46469        29.56338         1.62243
C         30.71326        31.85556         1.80904
C         29.42638        31.06134         1.69633
C         30.70333        33.33896         1.45786
C         29.35127        33.98676         1.21817
C         30.48954        35.97732         0.15536
C         29.28328        35.29400         0.52135
C         30.42684        37.28820        -0.36088
C         29.08425        37.85826        -0.79903
C         30.29443        40.03636        -1.41985
C         29.05610        39.37647        -0.83240
C         30.28499        41.56756        -1.34912
C         29.05665        42.29118        -1.02034
C         30.30710        44.41531        -0.77991
C         29.05864        43.68082        -0.88109
C         30.28262        45.83956        -0.55363
C         29.05418        46.53360        -0.53077
C         30.27279        48.73457        -0.48670
C         29.00181        48.00488        -0.17587
C         30.30274        50.10944        -0.72761
C         29.06096        50.82453        -0.92630
C         30.32135        52.89266        -1.25278
C         29.11010        52.20408        -1.14973
C         32.96802        19.06804        -1.97230
C         33.00646        20.46154        -1.82374
C         31.09837        21.64482        -1.57757
C         32.76911        23.32099        -0.72074
C         31.41424        22.75892        -0.78405
C         32.78088        24.82543        -0.55915
C         31.68039        25.38497         0.34096
C         32.98483        27.45681         0.49787
C         31.80783        26.74728         0.74179
C         33.12345        28.83147         1.04406
C         31.97194        29.59511         1.64192
C         33.23464        31.85734         1.25974
C         32.06538        31.11967         1.95488
C         33.15554        33.29596         0.80739
C         31.86626        34.00579         0.82973
C         32.94910        35.94077        -0.25419
C         31.77074        35.28435         0.26732
C         32.88630        37.32192        -0.59893
C         31.62584        38.01804        -0.63563
C         32.81461        40.13543        -1.04573
C         31.60400        39.40853        -0.95868
C         32.83954        41.57899        -1.07360
C         31.58505        42.33207        -1.19271
C         32.77723        44.41321        -0.50385
C         31.54304        43.74694        -0.79282
C         32.75710        45.84506        -0.26850
C         31.52427        46.52472        -0.32242
C         32.79797        48.75026        -0.16870
C         31.48859        47.98831        -0.14475
C         32.78811        50.14567        -0.62714
C         31.56360        50.82626        -0.83945
C         32.80706        52.93231        -1.36485
C         31.55933        52.23257        -1.14422
C         32.89284        54.30079        -1.64735
C         35.15821        18.90808        -0.96380
C         34.00944        18.28811        -1.46481
C         35.19085        20.35291        -0.84459
C         34.00759        21.14296        -1.10448
C         35.22454        23.24412        -0.46571
C         33.95991        22.58417        -0.81365
C         35.30564        24.61417        -0.26386
C         34.12840        25.42411        -0.25119
C         35.46534        27.48109         0.13324
C         34.18191        26.77947         0.07735
C         35.50288        28.85211         0.24324
C         34.24989        29.60144         0.45322
C         35.56347        31.75663         0.20041
C         34.28853        31.07329         0.53447
C         35.48594        33.15042        -0.12699
C         34.27669        33.86882         0.02109
C         35.38175        35.87625        -0.82946
C         34.19930        35.22960        -0.36460
C         35.30027        37.27185        -1.37405
C         34.07698        38.02979        -0.92984
C         35.31412        40.14188        -1.20744
C         34.06794        39.42665        -1.03082
C         35.30169        41.63921        -1.38419
C         34.02364        42.30566        -0.93958
C         35.23964        44.33516        -0.11502
C         33.99607        43.69089        -0.59511
C         35.25638        45.84684         0.08168
C         33.99832        46.58280        -0.15596
C         35.27738        48.70866        -0.21760
C         34.04371        47.97365        -0.24688
C         35.24545        50.11696        -0.46202
C         34.04243        50.77996        -0.79910
C         35.37287        52.94680        -1.35881
C         34.05203        52.15783        -1.33683
C         35.34673        54.41573        -1.43610
C         34.10472        55.01499        -1.69077
C         37.49472        16.02837         0.16078
C         36.27320        16.79549        -0.17894
C         37.63386        18.74771        -0.77496
C         36.32282        18.10005        -0.57911
C         37.64027        20.28078        -0.81051
C         36.40176        21.00671        -0.58302
C         37.75304        23.12391        -0.41134
C         36.44558        22.42158        -0.07697
C         37.83743        24.51870        -0.29370
C         36.61254        25.24184         0.20733
C         37.91979        27.39879        -0.11835
C         36.69619        26.73364         0.01335
C         37.98151        28.83166        -0.07104
C         36.79281        29.58566         0.45891
C         37.92757        31.67287        -0.42377
C         36.73209        31.03429         0.04111
C         37.88145        33.07555        -0.70892
C         36.67255        33.80510        -0.57879
C         37.84756        35.92279        -1.12601
C         36.61193        35.20696        -0.87311
C         37.80938        37.37559        -1.25291
C         36.58753        38.04584        -1.25532
C         37.77005        40.25967        -1.68941
C         36.52371        39.47815        -1.32369
C         37.76041        41.67969        -1.17171
C         36.58252        42.28949        -0.90263
C         37.83712        44.42165        -0.17840
C         36.55290        43.62639        -0.26238
C         37.79303        45.89792        -0.01814
C         36.54466        46.58919         0.06047
C         37.72801        48.75283         0.32778
C         36.49849        48.00257         0.03187
C         37.74910        50.23910         0.15934
C         36.47281        50.92645        -0.27655
C         37.73355        53.02306        -0.69362
C         36.56267        52.30237        -0.80088
C         37.77198        54.45079        -0.90502
C         36.57190        55.13531        -1.23872
C         37.76018        57.27883        -1.18760
C         36.65424        56.56377        -1.48929
C         40.10478        14.49683        -0.36806
C         40.11490        15.89025        -0.19319
C         38.84632        16.65807         0.02697
C         40.08132        18.76284        -0.39819
C         38.89020        18.08328        -0.38970
C         40.10885        20.19587        -0.61359
C         38.92608        20.94893        -0.64545
C         40.18092        23.02875        -0.86187
C         38.94331        22.37095        -0.63559
C         40.25101        24.47491        -0.81494
C         39.06336        25.20841        -0.46834
C         40.36347        27.31342        -0.53466
C         39.15633        26.65447        -0.37622
C         40.47992        28.79821        -0.26027
C         39.16108        29.53135        -0.35025
C         40.30835        31.58955        -1.25079
C         39.13282        30.93376        -0.56017
C         40.32722        33.08694        -1.06599
C         39.10810        33.78199        -0.98200
C         40.33077        35.93149        -1.21822
C         39.04920        35.21749        -1.10237
C         40.32797        37.43393        -1.22245
C         39.03642        38.15131        -1.23482
C         40.28751        40.28027        -1.18569
C         39.04537        39.52818        -1.31140
C         40.29101        41.65837        -1.17392
C         39.03519        42.46499        -1.38898
C         40.24826        44.54419        -0.70780
C         39.07902        43.82570        -0.72615
C         40.26598        45.93974        -0.31673
C         39.02492        46.58889        -0.05856
C         40.29374        48.78556         0.02144
C         39.05622        48.02184         0.26083
C         40.25957        50.21026        -0.09401
C         39.03110        50.89480        -0.13375
C         40.30508        53.06708        -0.59283
C         39.00376        52.28233        -0.57778
C         40.22201        54.53272        -0.48382
C         38.99499        55.17547        -0.66899
C         40.21566        57.39254        -0.50701
C         38.89155        56.66189        -0.40179
C         40.23955        58.77896        -0.61696
C         42.51789        14.48619        -0.56200
C         41.30626        13.80654        -0.55648
C         42.56801        15.89136        -0.37927
C         41.33798        16.59075        -0.22191
C         42.61739        18.78265        -0.31067
C         41.34228        18.07105         0.09208
C         42.59300        20.13863        -0.58619
C         41.35541        20.87254        -0.72233
C         42.59503        22.90699        -1.43964
C         41.35627        22.25482        -0.98482
C         42.55054        24.37717        -1.75106
C         41.46484        25.12297        -1.01765
C         42.78138        27.27013        -1.30793
C         41.66538        26.54334        -0.55526
C         42.97869        28.74071        -0.91638
C         41.65940        29.51719        -0.89630
C         42.87806        31.65909        -1.13171
C         41.63465        30.87733        -1.03910
C         42.83354        33.10244        -1.01124
C         41.57945        33.79358        -1.02112
C         42.73815        35.91307        -0.45652
C         41.55524        35.19195        -0.89239
C         42.73277        37.47032        -0.42342
C         41.53827        38.18899        -0.86558
C         42.79253        40.28839        -0.80892
C         41.54905        39.56813        -0.97067
C         42.81951        41.69305        -0.92492
C         41.56307        42.39929        -1.21499
C         42.78802        44.58209        -0.67220
C         41.53886        43.90451        -1.05889
C         42.75328        45.97032        -0.38722
C         41.49430        46.65395        -0.26228
C         42.74534        48.80881        -0.07809
C         41.50459        48.08531        -0.10530
C         42.73736        50.23405        -0.02089
C         41.50774        50.94090        -0.13234
C         42.70397        53.09464         0.03153
C         41.52456        52.36196        -0.17656
C         42.67095        54.54796        -0.02807
C         41.44724        55.24615        -0.25418
C         42.67399        57.39779        -0.28950
C         41.44116        56.68243        -0.34121
C         42.65317        58.80557        -0.43987
C         41.45660        59.48137        -0.60286
C         45.08778        15.91240        -0.41809
C         43.82940        16.60429        -0.38756
C         45.08493        18.70939        -0.57075
C         43.86180        18.04311        -0.37948
C         45.15773        20.15754        -0.48384
C         43.84644        20.91208        -0.54254
C         45.17348        23.03326        -1.12941
C         43.91201        22.25278        -1.18408
C         45.12510        24.45577        -1.36510
C         43.88931        25.05423        -1.61371
C         45.64241        27.48768        -1.92522
C         43.72521        26.47080        -1.90011
C         45.47271        28.94704        -1.83581
C         44.12117        29.55500        -1.55227
C         45.35886        31.80291        -1.51162
C         44.09423        31.01261        -1.24936
C         45.30505        33.19103        -0.93542
C         44.05115        33.84888        -0.86301
C         45.21976        35.98137        -0.35741
C         44.03222        35.24446        -0.54702
C         45.22268        37.43158        -0.27266
C         44.01701        38.16184        -0.44388
C         45.24764        40.28958        -0.48567
C         44.02131        39.57495        -0.59624
C         45.25197        41.71608        -0.55933
C         44.02078        42.42447        -0.75692
C         45.22998        44.56417        -0.42065
C         44.00619        43.86148        -0.65657
C         45.21728        45.97846        -0.23771
C         43.97899        46.68506        -0.22138
C         45.21315        48.81759         0.08084
C         43.98017        48.10539        -0.06444
C         45.20626        50.25411         0.16946
C         43.96451        50.95928         0.09682
C         45.16294        53.09122         0.34727
C         43.94691        52.38540         0.18009
C         45.11389        54.56598         0.64779
C         43.87984        55.27202         0.12760
C         45.15933        57.35390         0.01272
C         43.90615        56.67721        -0.03945
C         46.27145        16.54230        -0.66442
C         47.60171        18.73775        -0.74457
C         46.31360        17.98973        -1.06949
C         47.60091        20.17863        -0.73965
C         46.39561        20.89739        -0.80064
C         47.63078        23.04694        -0.75439
C         46.38085        22.32656        -0.92722
C         47.63952        24.46356        -0.78813
C         46.50041        25.17975        -1.51042
C         47.46086        27.41770        -0.32797
C         46.51079        26.69641        -1.26410
C         47.75131        28.85409        -0.77363
C         46.78812        29.66533        -1.62383
C         47.73738        31.72491        -0.67677
C         46.61456        31.06900        -1.12025
C         47.73012        33.15991        -0.47002
C         46.48369        33.87181        -0.58540
C         47.67722        35.98632        -0.11613
C         46.46250        35.28255        -0.33777
C         47.68236        37.41314         0.01276
C         46.44644        38.13619        -0.13256
C         47.66946        40.28611        -0.04652
C         46.46479        39.57687        -0.20713
C         47.70267        41.70913        -0.20635
C         46.47033        42.43158        -0.42256
C         47.68774        44.58293        -0.22716
C         46.46918        43.86019        -0.40407
C         47.65739        45.94357         0.06436
C         46.43631        46.67418         0.01680
C         47.67583        48.82093         0.29067
C         46.43777        48.10394         0.15299
C         47.67882        50.25419         0.34421
C         46.42318        50.97211         0.30284
C         47.62431        53.14887         0.51679
C         46.39712        52.40517         0.39479
C         47.63446        54.55275         0.46658
C         46.40967        55.28152         0.35805
C         46.36237        56.66990         0.15513
C         50.02849        18.78541        -0.47884
C         48.80817        18.07873        -0.60528
C         50.07134        20.17189        -0.47862
C         48.83518        20.90621        -0.57316
C         50.01565        22.99939         0.12825
C         48.81286        22.30675        -0.45800
C         50.01538        24.49650        -0.08088
C         48.80345        25.17114        -0.35600
C         50.04340        27.35561         0.21049
C         48.73505        26.61691        -0.03759
C         50.09101        28.82045         0.03779
C         48.89769        29.52477        -0.37347
C         50.14110        31.65365        -0.17676
C         48.95659        30.97511        -0.44442
C         50.15566        33.09519        -0.07805
C         48.91133        33.83260        -0.16590
C         50.10128        35.96657         0.23542
C         48.90616        35.26887        -0.01352
C         50.12991        37.38867         0.28123
C         48.90369        38.09686         0.20397
C         50.18711        40.23041         0.05935
C         48.89542        39.57864         0.47816
C         50.16857        41.63608        -0.28524
C         48.92399        42.40004        -0.21168
C         50.21844        44.56738         0.02368
C         48.98559        43.87218        -0.53441
C         50.15881        45.89511         0.38635
C         48.86057        46.61462         0.67319
C         50.10229        48.81734         0.55962
C         48.90199        48.11366         0.43977
C         50.13685        50.24626         0.47854
C         48.90155        50.95155         0.44627
C         50.12828        53.14399         0.21307
C         48.91889        52.42186         0.78947
C         50.09568        54.61777         0.35706
C         48.91439        55.25786         0.48188
C         52.57780        20.26365        -0.58244
C         51.33457        20.91142        -0.42255
C         52.54100        22.99693        -0.03339
C         51.32579        22.30415        -0.19091
C         52.49628        24.42919         0.33316
C         51.23883        25.19696         0.14331
C         52.54992        27.31861         0.16726
C         51.30242        26.59634         0.15813
C         52.55036        28.74534         0.18902
C         51.31302        29.48450         0.10391
C         52.57949        31.61285         0.14051
C         51.36951        30.92861         0.01614
C         52.61471        33.05951         0.17244
C         51.35043        33.75969         0.13947
C         52.64191        35.92848         0.43256
C         51.33876        35.19968         0.42367
C         52.62176        37.39822         0.32105
C         51.39341        38.09728         0.32359
C         52.64429        40.25257         0.25439
C         51.39429        39.53718         0.16476
C         52.70972        41.64354         0.22357
C         51.52804        42.41643        -0.18555
C         52.66890        44.48977         0.48144
C         51.47004        43.84923         0.10334
C         52.68161        45.90989         0.64765
C         51.38408        46.59576         0.78618
C         52.62660        48.83087         0.73000
C         51.36081        48.10787         0.84822
C         52.62756        50.22397         0.61252
C         51.39536        50.93239         0.49331
C         52.73327        53.04493         0.19450
C         51.42665        52.37011         0.16272
C         53.77247        20.95733        -0.46013
C         55.06125        23.06967        -0.05171
C         53.79170        22.33652        -0.16116
C         55.07145        24.47379         0.05777
C         53.81315        25.18640         0.33200
C         55.01225        27.33833        -0.03238
C         53.78827        26.63858         0.14867
C         54.98376        28.74783        -0.07175
C         53.78411        29.43714         0.16419
C         55.02235        31.54870         0.43635
C         53.82342        30.89316         0.25748
C         55.12337        32.99639         0.06163
C         53.82347        33.73574         0.20257
C         55.14202        35.91846         0.34871
C         53.87234        35.21326        -0.07303
C         55.11435        37.32494         0.45416
C         53.87022        38.04317         0.39406
C         55.16113        40.21556         0.80029
C         53.84752        39.48933         0.63500
C         55.17018        41.67657         0.63685
C         53.93479        42.35958         0.49110
C         55.13050        44.49316         0.76960
C         53.91642        43.77973         0.55333
C         55.11917        45.91779         0.84749
C         53.87376        46.61118         0.73441
C         55.11053        48.78869         0.98561
C         53.90059        48.08463         0.44279
C         55.09830        50.23718         0.91865
C         53.91206        50.93418         0.64074
C         53.88232        52.36560         0.44121
C         57.50632        23.10874        -0.02560
C         56.31318        22.40696        -0.11133
C         57.53284        24.51904         0.02632
C         56.29092        25.21920        -0.00015
C         57.50693        27.39820        -0.20154
C         56.27526        26.65019        -0.07019
C         57.49946        28.78041        -0.38565
C         56.21669        29.55913        -0.38584
C         57.57261        31.47437         0.71984
C         56.26057        30.69552         0.67083
C         57.56449        33.02257         0.82363
C         56.31537        33.75458         0.60175
C         57.61301        35.85695         0.57895
C         56.35240        35.15744         0.51722
C         57.60604        37.30036         0.35360
C         56.36109        38.06650         0.53208
C         57.64907        40.19518         0.73746
C         56.41235        39.45292         0.63328
C         57.62910        41.62075         0.86555
C         56.39223        42.36667         0.75177
C         57.57788        44.53639         1.03013
C         56.37664        43.79921         0.84488
C         57.55412        45.93542         1.24073
C         56.31435        46.63593         1.13420
C         57.39875        48.79991         1.95932
C         56.24991        48.07159         1.30556
C         57.49541        50.21499         1.43516
C         56.39640        50.88870         1.03160
C         59.99495        24.61681         0.40666
C         58.77571        25.26877         0.11968
C         59.99833        27.38837        -0.10980
C         58.77199        26.67732        -0.08142
C         60.06705        28.76789        -0.75450
C         58.74054        29.61980        -0.65749
C         60.01085        31.55981         0.35827
C         58.81470        30.85765         0.24628
C         60.03754        32.98657         0.66325
C         58.84358        33.73060         0.67657
C         60.09964        35.87118         0.77259
C         58.84517        35.16382         0.63920
C         60.13207        37.28934         0.88810
C         58.94899        38.07030         0.52011
C         60.07157        40.18503         1.20688
C         58.88568        39.50710         0.82640
C         60.05104        41.61855         1.31533
C         58.84769        42.31874         1.06402
C         60.12912        44.54527         1.36980
C         58.85464        43.79621         0.98510
C         60.01211        45.97983         1.74678
C         58.77069        46.66054         1.61408
C         59.85030        48.69590         2.41557
C         58.70778        48.03761         1.94919
C         61.17801        25.33988         0.47993
C         61.18511        26.70739         0.18484
C         61.28243        29.57544        -0.36214
C         61.24833        30.86607         0.03017
C         61.26686        33.71409         0.77624
C         61.28878        35.08370         0.87244
C         61.26461        38.02663         1.33278
C         61.25102        39.40239         1.44058
C         61.20631        42.35762         1.77559
C         61.22728        43.71156         1.88194
C         61.14529        46.67385         2.19858
C         61.06796        48.02366         2.53063
O         38.40669        48.33118         1.55082
O         49.18396        26.89537         1.33298
O         38.21877        16.46835         1.35712
O         42.50761        36.66890         0.79196
O         37.33264        43.64415         0.97805
O         53.17214        24.73420         1.59607
O         50.97549        42.00361        -1.47424
O         51.26826        47.28053         2.10960
O         30.95406        42.13438        -2.53449
O         24.51504        31.26987         0.58114
O         25.37993        27.84467         0.72251
O         30.55576        26.71402         2.83892
O         44.58905        29.39034        -2.93475
O         52.08469        35.47673         1.69494
O         30.04943        34.11924         2.50770
O         39.77372        52.49979        -1.83665
O         57.63521        32.13365         2.02457
O         41.61953        43.30474        -2.41111
O         32.09250        48.49574         1.10753
O         23.88323        32.63780         3.82212
O         43.28349        22.18155        -2.52751
O         29.91257        31.57690         2.99675
O         59.79229        44.29977        -0.03421
O         34.85940        52.27169        -2.56174
O         37.66210        19.45746        -2.04680
O         26.90215        41.79230        -2.14118
O         50.61087        52.66989        -1.06711
O         33.72878        32.89203         2.13299
O         24.94887        25.88819         3.90542
O         44.53059        20.77004         0.72316
O         36.91445        50.92464         1.15301
O         32.95130        28.88183         2.48533
O         32.02739        21.18980        -2.52052
O         40.50878        36.68092        -2.50228
O         58.40328        37.72928        -0.79578
O         60.30575        28.49565        -2.12454
O         35.10009        44.91676         1.21562
O         33.75370        30.41612        -0.69373
O         54.37176        39.81821         1.98333
O         44.69990        26.93079        -2.79572
O         32.43673        25.34434        -1.90660
H         31.61447        24.89142        -2.19305
O         28.32888        27.57129         3.71608
H         29.26751        27.39026         3.97133
O         42.19903        24.49322        -3.16971
H         42.64488        23.74057        -3.62343
O         45.43349        31.96471        -2.98627
H         44.99500        31.16545        -3.37583
O         43.43613        28.68195         0.48790
H         43.27597        27.76001         0.82494
O         55.99375        30.18590        -1.68481
H         56.88205        30.21683        -2.14398
O         44.97701        54.63582         2.13203
H         44.94108        55.58785         2.36863
O         42.08126        26.43113         0.88310
H         41.43795        26.97072         1.40589
O         38.50778        56.78577         1.01710
H         37.65079        56.32160         1.12866
O         53.83239        35.33364        -1.53592
H         54.47579        34.67363        -1.89135
O         55.40306        32.95226        -1.41634
H         55.56138        31.99738        -1.66221
O         57.04754        48.92197         3.38359
H         56.19042        49.39644         3.43378
O         36.98485        29.63076         1.92667
H         37.07690        28.70736         2.24433
O         46.82614        25.00045        -2.92342
H         46.13938        25.48592        -3.43540
O         35.10001        37.09827        -2.83260
H         35.17941        37.98484        -3.24658
O         26.15898        39.08702        -1.99154
H         26.24381        39.95710        -2.45238
O         32.40289        31.19689         3.34690
H         31.57544        31.06694         3.86215
O         48.83476        39.72376         1.95248
H         48.05131        39.22279         2.26498
O         30.23578        39.69855        -2.84506
H         30.66430        40.45088        -3.32330
O         37.73725        40.36384        -3.15778
H         38.35065        41.10712        -3.39713
O         28.93540        37.40178        -2.17926
H         29.40733        38.04999        -2.75643
O         36.61020        25.04548         1.68045
H         37.46534        25.38265         2.02431
O         47.42751        29.78192        -2.93990
H         46.99261        30.53540        -3.40111
O         40.05155        31.38748        -2.69413
H         39.26152        31.91804        -2.93356
O         46.74254        27.56811         0.93115
H         47.42770        27.58026         1.64215
O         35.32139        41.86639        -2.83940
H         36.10278        41.36739        -3.19546
O         54.02100        48.13715        -1.03912
H         54.20812        49.07021        -1.28133
O         28.90354        48.04341         1.30463
H         29.81197        47.94262         1.66614
O         41.30363        18.16983         1.55592
H         40.50629        17.68724         1.86531
O         26.88539        30.76434        -0.39411
H         25.94662        30.56481        -0.62034
O         39.01083        42.75233        -2.84719
H         39.92902        43.06679        -3.06994
O         36.39613        22.30543         1.38806
H         36.39356        23.23048         1.74923
O         49.12118        52.48506         2.24654
H         48.31094        52.13853         2.67727
O         46.23767        18.01282        -2.54818
H         45.44947        17.49019        -2.80892
O         56.12492        30.04158         1.95105
H         56.43434        30.68410         2.63036
O         49.85336        22.84548         1.58919
H         50.56581        23.36448         2.02217
O         49.11988        43.96053        -1.99661
H         49.85524        43.34636        -2.24365
O         58.56798        30.20023        -1.98722
H         59.23007        29.66683        -2.54284
O         40.80652        28.85701         1.20062
H         41.74647        29.15863         1.27855
O         48.66175        46.45993         2.12257
H         49.49365        46.79026         2.54709
H         23.13863        23.44940         2.55871
H         21.16809        24.76470         3.16591
H         21.19572        27.20506         3.27589
H         21.25163        29.13243         3.33990
H         21.28771        31.55899         3.42421
H         21.29155        33.57457         3.15817
H         21.15735        35.87130         2.39497
H         21.10590        37.67655         2.00143
H         21.01492        40.03922         1.50758
H         20.89243        41.85234         1.01258
H         20.81609        44.22698         0.52066
H         20.70965        46.00040        -0.23165
H         22.77716        49.68044        -1.01435
H         20.67809        48.42234        -0.69837
H         24.75792        22.59581         1.72171
H         24.43741        50.61152        -1.33266
H         26.65831        21.54858         0.60778
H         26.54531        51.81544        -1.43338
H         29.67585        20.12323        -2.18170
H         27.90791        20.96705        -0.65608
H         30.28972        53.97183        -1.45223
H         28.18230        52.77908        -1.26789
H         32.13216        18.60701        -2.51361
H         31.96911        54.88389        -1.76669
H         33.97013        17.19439        -1.56217
H         34.04686        56.10197        -1.84239
H         37.39865        14.92363         0.09697
H         35.30734        16.27588        -0.09084
H         37.77996        58.35415        -1.41433
H         35.80708        57.06134        -1.98296
H         39.15641        13.94259        -0.35300
H         39.30501        59.34916        -0.70284
H         43.44397        13.91592        -0.71276
H         41.29082        12.71707        -0.69746
H         43.58658        59.38252        -0.41432
H         41.45318        60.57553        -0.70260
H         45.10332        14.82995        -0.22500
H         45.20078        58.43998        -0.13774
H         47.19266        15.94418        -0.70129
H         47.29324        57.24694         0.06801
H         50.95456        18.20050        -0.39653
H         48.85250        16.98145        -0.62456
H         51.03249        55.19061         0.30356
H         48.91228        56.35284         0.57031
H         52.61388        19.18799        -0.80122
H         52.77234        54.12432        -0.00803
H         54.71246        20.40606        -0.59319
H         54.82873        52.92363         0.45996
H         58.44713        22.54257        -0.03304
H         56.35651        21.31235        -0.18616
H         58.45970        50.74095         1.49054
H         56.49055        51.94535         0.74283
H         60.01367        23.53567         0.59758
H         59.78945        49.75087         2.71564
H         62.11886        24.82823         0.72623
H         62.14407        27.24264         0.17639
H         62.25788        29.12451        -0.59531
H         62.20071        31.39857         0.16105
H         62.22188        33.17398         0.81368
H         62.25860        35.58939         0.97633
H         62.19101        37.49191         1.58527
H         62.17646        39.90496         1.75160
H         62.07685        41.79473         2.13963
H         62.08559        44.19384         2.37053
H         62.11071        46.15750         2.28387
H         61.96067        48.55508         2.88736
