         300
 CSIRO Nanostructure Databank - Neutral Graphene Oxide Data Set
C         31.13028        31.35949        -2.64021
C         30.99638        32.57575        -2.46767
C         30.60584        35.86580        -1.75992
C         30.46893        37.04570        -1.43028
C         30.52379        40.29432        -1.43954
C         30.65416        41.47556        -1.75797
C         32.99523        28.56682        -1.16292
C         32.00452        29.05493        -1.79841
C         33.19775        31.27222        -1.31912
C         32.16933        30.32677        -2.54447
C         32.97209        32.71606        -1.03463
C         31.67976        33.41830        -1.46656
C         32.61602        35.62643        -0.41350
C         31.48867        34.85844        -1.14413
C         32.55651        37.12321        -0.22384
C         31.32878        37.93229        -0.64091
C         32.75079        40.09016        -0.42014
C         31.38191        39.41902        -0.62704
C         32.96872        41.50258        -0.87305
C         31.77926        42.40557        -1.92508
C         32.72134        44.32723        -0.67727
C         31.84529        43.72308        -1.29354
C         35.40408        27.60340         1.21987
C         35.33102        28.28324        -0.15022
C         34.07719        29.03186        -0.44028
C         35.21103        31.23927         0.16294
C         33.89195        30.50780        -0.14981
C         35.14987        32.73109         0.32569
C         33.77814        33.42039         0.07922
C         34.97894        35.62817         0.50835
C         33.97193        34.89215        -0.37316
C         34.75962        37.07540         0.71035
C         33.80088        37.87292         0.16998
C         35.11223        40.18890         0.71689
C         33.70879        39.37247         0.55750
C         35.15086        41.68985         0.48914
C         34.16853        42.36571        -0.46156
C         35.14802        44.70604         0.06472
C         33.87699        43.86425         0.15899
C         35.36723        46.00647         0.73959
C         37.74734        28.00772         1.86945
C         36.40635        27.33864         1.89157
C         37.88430        28.48758         0.32258
C         36.58885        29.19716        -0.04158
C         37.69836        31.37203        -0.60041
C         36.51590        30.55338        -0.08921
C         37.69809        32.83814        -0.14067
C         36.45460        33.52766         0.31203
C         37.70516        35.84275         0.51222
C         36.37593        35.03339         0.58766
C         37.83214        37.37665         0.65392
C         36.65825        38.21261         1.01490
C         37.72348        40.26906         0.45027
C         36.46455        39.51464         0.69002
C         37.73424        41.75448         0.50003
C         36.43991        42.55340         0.68506
C         37.76267        44.70474         0.37557
C         36.47359        43.97107         0.06428
C         37.77713        45.97024         1.18897
C         36.43627        46.50838         1.12065
C         40.03673        26.20082         4.20744
C         38.95613        26.63385         3.70853
C         40.22548        27.98668         2.14237
C         38.94440        27.11775         2.24936
C         40.39896        28.93266         0.96880
C         39.15198        29.35073         0.19293
C         40.15973        31.56357        -0.31762
C         39.05438        30.76985        -0.26015
C         40.07405        32.90605        -1.05640
C         38.82943        33.71118        -0.60874
C         40.20703        35.89584        -0.28823
C         38.82468        35.18764        -0.31330
C         40.07484        37.39969        -0.62288
C         38.93608        38.14350        -0.02499
C         40.08645        40.33456        -0.50849
C         38.90637        39.51492        -0.06995
C         40.23043        41.72160         0.10564
C         38.90256        42.46362        -0.17559
C         40.26150        44.35225         0.95068
C         39.01412        43.92263         0.24367
C         40.24420        45.72030         1.61516
C         38.94983        46.49174         1.66741
C         41.26133        49.56661         3.55840
C         40.66411        50.57714         3.99869
C         42.67276        26.12191         4.30191
C         41.36965        26.59173         4.05079
C         42.72674        28.12512         2.42228
C         41.41843        27.73027         3.04489
C         42.76669        29.52577         1.82157
C         41.49554        29.89762         1.11428
C         42.72695        31.67622        -0.19286
C         41.41546        31.25084         0.47885
C         42.69002        33.10306        -0.68690
C         41.37752        33.72131        -1.04351
C         42.58422        35.98371        -1.28436
C         41.22048        35.23864        -1.25943
C         42.61576        37.46127        -0.87555
C         41.29659        38.17506        -1.08593
C         42.66176        40.37512        -0.77357
C         41.34927        39.66842        -0.95849
C         42.68847        41.72023        -0.49351
C         41.41681        42.55446        -0.45055
C         42.71098        44.39295         0.79319
C         41.53336        43.79197         0.44678
C         42.74868        45.68779         1.49203
C         41.56888        46.36782         1.77487
C         43.12512        47.83399         3.58695
C         41.88036        48.41815         3.14097
C         43.79074        26.60973         3.98032
C         45.30809        28.16393         2.44090
C         44.04984        27.47608         2.82220
C         45.30077        29.27505         1.62563
C         44.01886        29.63255         0.88059
C         45.24020        31.89286         0.31606
C         44.01640        31.03157         0.21646
C         45.18712        33.33017        -0.09758
C         43.82312        34.02546        -0.27395
C         45.18414        36.13790        -0.89533
C         43.90173        35.28905        -1.09963
C         45.05703        37.44175        -1.74632
C         43.85728        38.24996        -1.25302
C         45.20362        40.27682        -0.85467
C         43.88507        39.59736        -1.02037
C         45.24259        41.76946        -0.72282
C         43.95627        42.50261        -0.48466
C         45.08425        43.78487         1.35907
C         44.03013        43.88163         0.21318
C         45.13761        45.11976         2.12189
C         44.15861        46.23074         1.84157
C         43.92140        47.10313         3.01338
C         47.73125        28.04343         2.24975
C         46.64360        27.70464         2.76082
C         47.95641        29.35311         1.63261
C         46.57618        29.73093         0.85017
C         47.83727        31.90110         0.00739
C         46.59755        31.23644         0.53844
C         47.65301        33.02583        -1.00390
C         46.30099        33.82987        -1.04920
C         47.58054        35.88587        -1.95153
C         46.45662        35.33513        -1.16188
C         47.67336        37.41200        -2.03907
C         46.40416        38.19068        -1.79503
C         47.78237        40.32337        -1.34074
C         46.48096        39.55354        -1.15636
C         47.84590        41.59282        -0.48042
C         46.55373        42.35350        -0.23963
C         47.70691        43.59806         1.72848
C         46.49345        43.38188         0.85023
C         47.43419        44.48368         2.82512
C         46.33876        45.16589         2.75855
C         50.54134        29.43126         1.12376
C         49.21753        30.02997         1.16552
C         50.30449        31.47628        -0.81083
C         49.26137        31.36515         0.30598
C         50.21267        32.73789        -1.64982
C         48.88696        33.55896        -1.70852
C         50.18818        35.76096        -2.21901
C         48.84764        35.03132        -2.17315
C         50.25671        37.23947        -1.88560
C         49.03682        38.18348        -1.98512
C         50.28109        40.04544        -0.76829
C         48.98396        39.29578        -0.92630
C         50.27835        41.01780         0.39937
C         49.05228        41.94050         0.34670
C         50.18831        43.10498         2.04511
C         48.89379        42.94020         1.47286
C         51.53402        29.81091         0.44884
C         52.69849        31.63303        -1.02252
C         51.68229        30.86567        -0.44514
C         52.67241        32.65876        -1.73525
C         51.48907        33.43067        -2.12521
C         52.60594        35.78939        -1.89231
C         51.47900        34.91569        -2.25021
C         52.57646        36.95199        -1.49210
C         51.46105        37.84007        -1.06850
C         52.64137        39.96619        -0.39975
C         51.58550        39.35899        -1.27620
C         52.69439        40.88263         0.42518
C         51.61233        41.91947         0.55295
C         51.34326        42.67570         1.84955
O         51.48986        34.07161        -3.41252
O         44.61460        42.50708        -1.80922
O         43.32505        35.42357        -2.40487
O         41.38809        47.72872         2.08440
O         43.28977        27.03671         1.65297
O         48.60080        30.30938         2.45509
O         38.22796        36.43693         1.72447
O         37.42196        32.95831         1.27387
O         46.71417        43.76573        -0.53765
O         35.87980        44.49427        -1.15642
O         47.35315        32.17132         1.35679
O         49.98348        31.39185        -2.19873
O         47.94882        32.68321        -2.38140
O         43.44789        30.86434        -1.12952
O         30.89213        33.83626        -0.32940
O         40.44573        40.31642        -1.92120
O         33.91937        32.26727        -2.07865
O         45.99466        39.61612         0.21018
O         38.38375        34.69895        -1.60416
O         40.33932        37.70006        -2.03612
O         42.28608        33.18126        -2.06643
O         35.62029        37.57848         1.68309
O         46.52213        29.04524        -0.32720
O         46.94930        38.05210        -3.13336
O         45.23871        32.99371         1.30923
O         33.38900        40.38142        -1.70585
O         38.62293        44.83436        -0.82960
O         47.92204        35.23386        -3.26083
O         38.05557        41.01710         1.71808
O         40.19551        28.54187        -0.43850
O         35.12817        31.85414         1.48788
O         34.79590        41.15429         1.77684
O         40.49355        28.81372         3.33478
O         50.45403        36.75776        -3.24653
O         37.52427        31.29630        -2.08214
O         35.49144        35.07401         1.75611
O         48.87717        42.49779        -0.98728
O         32.19401        36.16151         0.85480
O         30.79281        38.70137         0.45895
O         40.14861        44.46581         2.39588
O         41.33718        32.24613         1.57909
H         40.54650        32.04282         2.12529
O         48.55727        38.66636         0.29464
H         48.98069        39.12920         1.06417
O         33.02964        33.38403         1.28923
H         33.56036        33.79901         2.00448
O         32.99256        30.58633         0.95767
H         33.03053        31.49114         1.35800
O         33.07417        39.41855         1.82747
H         33.62063        38.93571         2.48143
O         32.32747        42.41402        -3.19154
H         32.34686        41.49878        -3.54178
O         51.83026        39.60221        -2.64061
H         51.87941        40.56725        -2.79503
O         34.53330        34.93528        -1.70252
H         34.62784        34.03084        -2.08267
O         39.80971        32.58518        -2.43965
H         40.07898        33.37746        -2.96222
O         36.44949        42.96535         2.07428
H         36.18041        42.18433         2.61389
O         44.68154        47.04542         0.79148
H         44.74728        46.47749        -0.01897
O         37.75785        29.18224         2.65207
H         37.67250        28.93900         3.59822
O         40.73464        35.70405         1.02657
H         40.10861        36.09367         1.68162
O         44.61427        42.75071         2.23910
H         45.13296        42.77661         3.07107
O         45.22734        36.55616         0.50080
H         45.05227        35.76265         1.06213
O         38.03459        27.32103        -0.48570
H         38.97645        27.28072        -0.79079
O         42.68397        37.44843         0.58730
H         43.60578        37.18337         0.84700
O         33.49618        43.69411         1.50247
H         33.57957        44.54820         1.97572
O         39.06600        26.00330         1.40353
H         38.18223        25.59467         1.28279
O         38.61621        42.39180        -1.57815
H         38.52274        43.32137        -1.90682
O         36.90803        32.52235        -2.53020
H         37.68252        33.00915        -2.91944
O         44.42446        44.86090        -0.75615
H         44.84026        44.37819        -1.51455
O         38.96667        47.68310         2.30155
H         38.07078        48.07948         2.28640
O         50.18833        40.25384         1.63242
H         50.99835        39.69800         1.69412
O         40.69498        35.31988        -2.59932
H         41.46458        35.22613        -3.20643
O         41.16034        43.00545        -1.78697
H         40.86820        42.22062        -2.31116
O         43.04304        30.46191         2.89057
H         42.23071        30.55816         3.43315
O         45.65889        33.48705        -2.30900
H         46.31836        33.61472        -3.03295
O         35.49854        27.33762        -1.17170
H         36.39740        26.93674        -1.09195
O         34.90182        42.45632        -1.68418
H         34.29357        42.73306        -2.40576
O         51.20538        37.64250         0.32165
H         51.47703        36.74023         0.58788
O         49.22665        38.86397        -3.21985
H         49.35754        38.19562        -3.92824
O         49.82311        32.33624         1.22522
H         49.24840        32.33218         2.02829
O         40.54448        41.60766         1.49763
H         39.74562        41.29823         1.99298
O         44.70869        37.13697        -3.09974
H         45.50951        37.25495        -3.66658
O         43.93015        28.67190        -0.14954
H         44.85365        28.60340        -0.54278
O         51.70609        42.82777        -0.49329
H         52.47713        43.41552        -0.36074
O         43.44194        34.55966         1.02491
H         43.55069        33.84638         1.69704
O         32.90799        30.16382        -3.68186
H         32.89568        30.97915        -4.22165
O         47.82806        40.75927        -2.68118
H         48.55332        41.41498        -2.77155
