         344
 CSIRO Nanostructure Databank - Neutral Graphene Oxide Data Set
C          1.44295         3.38228         1.27796
C          0.27334         4.07113         1.46611
C          1.30699         6.23870         0.95570
C          0.21481         5.49637         1.34468
C          1.29320         7.68420         0.84350
C          0.08300         8.40724         0.92504
C          1.22612        10.53487         0.56591
C          0.04570         9.78441         0.78317
C          1.20129        11.97459         0.44635
C         -0.01773        12.70563         0.42467
C          1.17505        14.83136         0.25529
C         -0.03353        14.07819         0.31068
C          1.18289        16.25191         0.08185
C         -0.03385        17.00029        -0.20257
C          1.14366        19.16676         0.13623
C         -0.07529        18.35177        -0.23074
C          1.13584        20.61593        -0.41082
C         -0.08364        21.39640         0.00088
C          1.20157        23.48441         0.06197
C         -0.05107        22.74046         0.08680
C          1.23424        24.89435        -0.00960
C          0.03418        25.68372        -0.21033
C          1.41115        27.61616        -0.92276
C          0.08147        26.97882        -0.60843
C          1.39553        29.12450        -0.97119
C          3.86338         3.43904         0.85529
C          2.64907         4.07201         0.91349
C          3.82272         6.27896         0.90391
C          2.55967         5.52624         0.48757
C          3.76633         7.74120         0.53946
C          2.50887         8.41393         0.61786
C          3.68968        10.56744         0.31989
C          2.46794         9.83755         0.48699
C          3.67309        11.99371         0.31696
C          2.42596        12.69721         0.36911
C          3.64940        14.84955         0.36773
C          2.41438        14.12556         0.32965
C          3.61834        16.27634         0.35220
C          2.40908        16.95415         0.15013
C          3.66650        19.16292        -0.00156
C          2.40244        18.39870        -0.31880
C          3.62828        20.60042        -0.03144
C          2.42842        21.34050        -0.04805
C          3.61776        23.48113         0.73475
C          2.41903        22.74159         0.15858
C          3.66985        24.94210         0.35135
C          2.50349        25.59700         0.07429
C          3.79328        27.77092        -0.14077
C          2.45421        27.11149         0.07694
C          3.81003        29.14771        -0.52993
C          2.54284        29.81565        -0.82616
C          6.26427         3.46667         0.23572
C          5.07110         4.14916         0.48002
C          6.19412         6.28964        -0.01442
C          5.05017         5.56844         0.39139
C          6.19405         7.72430         0.01976
C          4.95202         8.43818         0.28517
C          6.14476        10.60474         0.10373
C          4.92643         9.87203         0.20098
C          6.13504        11.99398         0.17855
C          4.90224        12.71756         0.27404
C          6.13581        14.87974         0.22372
C          4.89108        14.14293         0.34498
C          6.14006        16.29735         0.25869
C          4.88261        17.03837         0.66183
C          6.13817        19.15090        -0.06521
C          4.84972        18.48116         0.21460
C          6.15250        20.62839        -0.30969
C          4.91216        21.31372         0.16909
C          6.20310        23.53965         0.32863
C          4.94618        22.76032         0.53098
C          6.20357        24.94634         0.47040
C          4.91839        25.70592         0.75196
C          6.21584        27.79349         0.09188
C          4.97032        27.10764         0.17838
C          6.24052        29.17289        -0.27910
C          5.01735        29.83313        -0.58352
C          8.57810         3.43177        -0.50594
C          7.42450         4.14983        -0.23538
C          8.49277         6.31142        -0.90708
C          7.37892         5.59319        -0.41395
C          8.50470         7.73109        -0.79924
C          7.38115         8.41834        -0.26714
C          8.60392        10.65978        -0.43656
C          7.46881         9.86703         0.17093
C          8.61007        12.03905        -0.30784
C          7.44466        12.72232         0.36466
C          8.53975        14.90324        -0.25130
C          7.36355        14.19436         0.06439
C          8.51954        16.31281        -0.30068
C          7.34746        16.98974         0.06199
C          8.66115        19.17891         0.02860
C          7.39332        18.45089         0.41701
C          8.64665        20.66591         0.32581
C          7.46578        21.40235        -0.38341
C          8.63924        23.52265         0.12654
C          7.40223        22.83694         0.10181
C          8.64013        24.93803         0.26521
C          7.42246        25.66210         0.39487
C          8.67736        27.82804         0.35956
C          7.45307        27.11541         0.33114
C          8.70822        29.23911        -0.02583
C          7.48300        29.84327        -0.36672
C         11.02229         3.45014        -0.77619
C          9.71651         4.00498        -1.28513
C         11.00278         6.28111        -1.47172
C          9.69013         5.54584        -1.37791
C         11.03407         7.78911        -1.43174
C          9.69402         8.52607        -1.18686
C         10.99350        10.62435        -1.04918
C          9.77952         9.95998        -0.87575
C         11.00280        12.12232        -1.17366
C          9.77736        12.80629        -0.62086
C         11.01525        14.94742        -0.64597
C          9.78214        14.19310        -0.52256
C         11.01450        16.34738        -0.64135
C          9.69885        17.07191        -0.86107
C         10.98544        19.25203        -0.94477
C          9.74749        18.52479        -0.43947
C         11.02725        20.69290        -0.48813
C          9.90810        21.37210        -0.10256
C         11.09417        23.53450        -0.11076
C          9.88726        22.81712        -0.03457
C         11.10863        24.94487         0.12493
C          9.87856        25.64303         0.29229
C         11.14206        27.63392         0.75885
C          9.88317        27.04505         0.52053
C         11.17474        29.76403         0.20441
C          9.89116        30.02314        -0.30812
C         13.42847         3.47754        -0.39414
C         12.23299         4.11659        -0.81916
C         13.50617         6.32730        -0.82946
C         12.29147         5.54693        -1.22834
C         13.39185         7.77908        -0.41191
C         12.25383         8.51974        -1.07985
C         13.44099        10.60963        -0.41956
C         12.23727         9.90278        -1.03300
C         13.51857        12.09018        -0.72712
C         12.28607        12.81397        -0.78818
C         13.48650        14.94627        -0.68564
C         12.26835        14.22826        -0.70979
C         13.48471        16.35141        -0.59425
C         12.24607        17.07393        -0.62602
C         13.52658        19.16166        -0.75197
C         12.28443        18.49622        -0.68362
C         13.54655        20.64165        -0.93083
C         12.27313        21.43155        -0.75806
C         13.55394        23.50968        -0.16792
C         12.34076        22.85360        -0.33536
C         13.59858        24.93019         0.04762
C         12.34155        25.64579         0.12287
C         13.58497        27.80767         0.02113
C         12.34764        27.03072         0.41070
C         13.61591        29.32099         0.23745
C         12.46324        30.11597        -0.20704
C         15.84459         3.48216         0.13108
C         14.65388         4.17080        -0.21492
C         15.88600         6.30505        -0.14953
C         14.69136         5.59498        -0.32860
C         15.91846         7.75059        -0.30865
C         14.72870         8.47938        -0.49949
C         15.97713        10.56850        -0.56690
C         14.75294         9.88135        -0.60215
C         16.03971        12.02938        -0.94161
C         14.72782        12.75461        -0.78440
C         15.98191        14.92733        -0.42025
C         14.77329        14.24129        -1.02300
C         15.94642        16.29563        -0.27801
C         14.73427        17.05549        -0.52682
C         16.12080        19.11016        -0.90813
C         14.75868        18.45633        -0.63668
C         16.13011        20.63179        -0.74618
C         14.84240        21.38480        -0.73506
C         16.08908        23.43896         0.04609
C         14.79067        22.67600         0.06975
C         16.05313        24.83585         0.63027
C         14.80245        25.61607         0.29010
C         16.01995        27.71842         0.66188
C         14.83348        27.04609         0.42232
C         16.01131        29.17742         1.04329
C         14.78826        29.92325         0.56913
C         18.28178         3.47666         0.57266
C         17.05547         4.17198         0.28811
C         18.32532         6.30036         0.23846
C         17.08851         5.59628         0.13717
C         18.36507         7.72216         0.07744
C         17.15415         8.44719        -0.19014
C         18.41915        10.58413        -0.12524
C         17.18021         9.86519        -0.32873
C         18.41444        12.02066        -0.06690
C         17.21197        12.76531        -0.31464
C         18.38514        14.86600         0.23497
C         17.18446        14.15456        -0.15369
C         18.37633        16.27619         0.39625
C         17.07836        17.04138         0.37876
C         18.39769        19.14447         0.19682
C         17.24356        18.45923        -0.11958
C         18.48455        20.59840         0.06992
C         17.33573        21.32187        -0.22622
C         18.54566        23.47017         0.38581
C         17.27319        22.75258        -0.01333
C         18.53071        24.92824        -0.10727
C         17.29644        25.64022         0.36665
C         18.51543        27.76747         0.38869
C         17.28492        27.01439         0.51411
C         18.46871        29.20577         0.41285
C         17.26684        29.88562         0.63653
C         19.46642         4.15350         0.66929
C         20.74517         6.28441         0.58002
C         19.52245         5.57711         0.49874
C         20.77897         7.65972         0.43436
C         19.59881         8.41216         0.19575
C         20.80878        10.59057         0.36824
C         19.61266         9.86388         0.12497
C         20.80773        11.96528         0.43903
C         19.61394        12.71199         0.26040
C         20.77952        14.87225         0.72240
C         19.60343        14.14920         0.40125
C         20.76315        16.24545         0.85069
C         19.55868        16.97602         0.69406
C         20.65435        19.16487         1.15639
C         19.55373        18.44069         0.74206
C         20.74992        20.57468         0.96439
C         19.71888        21.27992         0.39619
C         21.02272        23.51328         0.31385
C         19.80362        22.71946        -0.07967
C         20.99397        24.88537         0.38331
C         19.80685        25.65492         0.23057
C         20.95941        27.86691         0.22074
C         19.77272        27.08899         0.28698
C         20.90549        29.26485         0.18961
C         19.69238        29.93397         0.26450
O         10.26574         5.88942        -2.67872
O         11.17535        28.90288         1.32578
O         10.83516        19.30036        -2.36268
O         13.28193         5.95615        -2.23148
O          6.06305        19.71450        -1.43612
O         12.83540        21.15567        -2.09389
O          5.12783        21.73388         1.58557
O         10.24485         8.31473        -2.52500
O         15.64751        21.36150        -1.94684
O         13.15053        10.48143         0.97992
O          9.55646         3.47191        -2.63747
H          9.93221         4.15433        -3.24627
O          7.80950        21.53019        -1.78041
H          7.60924        20.67004        -2.21651
O         18.59506        23.49042         1.82851
H         17.75160        23.90090         2.15459
O          7.32081        18.49878         1.88312
H          6.47119        18.06590         2.16805
O         14.92139        14.40233        -2.49312
H         14.99911        15.36520        -2.67482
O          4.94128        17.11889         2.15725
H          4.96099        16.19806         2.49700
O         13.03068         7.78242         1.00348
H         13.04218         8.76245         1.25905
O          8.52597        20.88094         1.74980
H          8.03410        20.11359         2.13630
O          1.17928        19.30238         1.57671
H          1.16560        18.40347         1.96707
O          4.80505        25.87232         2.20559
H          4.42767        25.02554         2.55695
O         16.02700        24.60556         2.10459
H         15.42413        23.83309         2.24943
O          1.83288        27.13715        -2.23460
H          1.21734        27.50322        -2.90295
O         16.31060        12.02938        -2.38748
H         16.01669        12.90311        -2.74435
O         14.64962        22.23672         1.48882
H         13.69368        22.13400         1.68852
O         18.43693        24.89651        -1.58280
H         18.44003        25.82529        -1.89915
O         13.58169        27.73027        -1.45407
H         13.60705        26.78096        -1.70340
O         15.97225        29.22275         2.52232
H         16.67632        28.62460         2.85216
O          2.01087        27.49816         1.40484
H          2.69627        27.19199         2.03895
O          2.39574        18.25583        -1.76276
H          2.08321        19.10643        -2.15624
O          7.79415         9.78830         1.60331
H          7.90144        10.72107         1.92212
O          3.87956         6.22013         2.36247
H          4.68548         6.69704         2.65242
O          2.52602         5.54924        -0.96701
H          1.73005         5.05744        -1.25782
O         10.96103        12.36001        -2.63677
H         10.79118        13.31683        -2.78095
O          7.73544        12.61611         1.82057
H          7.00812        13.06929         2.29831
O          3.38890        23.49972         2.19134
H          3.74508        22.63846         2.52330
O          9.49917        17.08004        -2.30565
H         10.00313        17.88651        -2.64642
O         16.66140        17.17842         1.79217
H         17.42113        17.55930         2.28300
O          1.07220        20.54422        -1.87225
H          1.07853        21.46226        -2.21686
O         19.83514        22.61953        -1.52749
H         19.45913        23.45416        -1.90035
O         16.39773        18.82771        -2.30961
H         16.04880        19.59499        -2.82169
H          1.48443         2.29655         1.45046
H         -0.63626         3.53497         1.77104
H         -0.72638         5.99054         1.62523
H         -0.86262         7.87190         1.08604
H         -0.92596        10.29091         0.85208
H         -0.97681        12.17328         0.47521
H         -1.00170        14.59552         0.27731
H         -0.95261        16.43827        -0.42432
H         -1.02443        18.86106        -0.45413
H         -1.04119        20.86464         0.09693
H         -0.98308        23.28900         0.28502
H         -0.94545        25.20734        -0.05760
H         -0.84865        27.54550        -0.77091
H          0.45289        29.64360        -1.20615
H          3.93627         2.36196         1.07163
H          2.55373        30.91151        -0.93158
H          6.30279         2.37303         0.34592
H          5.03552        30.89707        -0.86336
H          8.59205         2.34739        -0.31757
H          7.48777        30.89028        -0.70642
H         11.01604         2.39972        -0.44458
H          9.76614        30.85806        -1.01577
H         13.39392         2.39886        -0.17720
H         12.63314        30.98263        -0.86502
H         15.82340         2.38720         0.23643
H         14.83413        31.02303         0.61849
H         18.25173         2.38453         0.69855
H         17.28075        30.98537         0.68774
H         20.40041         3.61116         0.87738
H         21.67590         5.72968         0.76764
H         21.74988         8.16710         0.50948
H         21.75455        10.05897         0.53501
H         21.75395        12.47818         0.65372
H         21.73343        14.34676         0.85804
H         21.70265        16.77021         1.06909
H         21.52717        18.64960         1.58071
H         21.69217        21.07378         1.23076
H         21.98969        22.99926         0.42217
H         21.93393        25.41307         0.60823
H         21.93542        27.36932         0.14336
H         21.83964        29.83729         0.10229
H         19.66126        31.03264         0.25312
