         611
 CSIRO Nanostructure Databank - Neutral Graphene Oxide Data Set
C         23.37879        69.83309        -2.25684
C         23.27363        71.23630        -2.06013
C         22.09585        71.95167        -2.28838
C         23.21598        74.12852        -2.12946
C         22.08991        73.37214        -2.34668
C         25.96382        65.62293        -2.40724
C         25.87759        67.03039        -2.27882
C         24.66853        67.73582        -2.30320
C         25.82399        69.91678        -1.92737
C         24.60400        69.15487        -2.15862
C         25.77384        71.31257        -1.68571
C         24.46473        71.96595        -1.59595
C         25.73788        74.20083        -1.68441
C         24.43752        73.51747        -1.60971
C         28.59678        61.40814        -2.35823
C         28.51506        62.80506        -2.19068
C         27.28971        63.52794        -2.42325
C         28.31996        65.64534        -1.57216
C         27.17400        64.90124        -2.21919
C         28.42034        67.08435        -2.01998
C         27.13744        67.82011        -2.24596
C         28.25177        69.98875        -1.65228
C         27.08296        69.26997        -1.94862
C         28.21036        71.39633        -1.43769
C         26.95678        72.07251        -1.53138
C         28.22629        74.29363        -1.62128
C         26.91812        73.52577        -1.54670
C         31.27175        57.18487        -2.33711
C         31.15124        58.59384        -2.16476
C         29.94349        59.28815        -2.38272
C         30.97013        61.44023        -1.78710
C         29.81371        60.69701        -2.16980
C         30.90430        62.82878        -1.60999
C         29.69699        63.53297        -1.81051
C         30.79203        65.70669        -1.33398
C         29.66111        64.96005        -1.63289
C         30.75490        67.15300        -1.20012
C         29.61458        67.83424        -1.58626
C         30.75856        70.02997        -1.09825
C         29.56385        69.29871        -1.63970
C         30.53942        71.37618        -0.44810
C         29.39159        72.13231        -1.06885
C         30.59296        74.23936        -0.73217
C         29.42232        73.53149        -1.08154
C         33.53098        52.94170        -1.70601
C         33.64622        54.34171        -1.83655
C         32.51084        55.08294        -2.16997
C         33.63694        57.20523        -1.56824
C         32.46807        56.50238        -2.07906
C         33.50235        58.63314        -1.35575
C         32.32886        59.30062        -1.72701
C         33.41025        61.49381        -0.95941
C         32.27190        60.76115        -1.66841
C         33.09267        62.82548        -0.32983
C         32.13445        63.56593        -1.23221
C         33.15149        65.73801        -0.35423
C         32.09139        65.04851        -1.12393
C         33.09716        67.13983        -0.26739
C         31.93539        67.86051        -0.72550
C         33.06056        69.98373        -0.17448
C         31.91674        69.25148        -0.61721
C         33.01414        71.43847        -0.22880
C         31.83955        72.13873        -0.39145
C         33.01990        74.30334        -0.21606
C         31.82329        73.58822        -0.44178
C         35.53648        48.52608        -0.71516
C         35.55040        49.93182        -0.62794
C         34.46605        50.72365        -1.09079
C         35.70418        52.79914        -0.58969
C         34.53971        52.12821        -1.13510
C         35.92545        54.16471        -0.83426
C         34.99212        55.04027        -1.68385
C         35.86038        57.28621        -0.58890
C         34.83234        56.53159        -1.27207
C         35.65182        58.61196        -0.13013
C         34.54355        59.35833        -0.65661
C         35.63676        61.42799         0.27583
C         34.46154        60.70552        -0.34764
C         35.41293        62.89049         0.61079
C         34.32696        63.58882         0.08622
C         35.38114        65.73347         0.70149
C         34.27053        65.01983         0.14151
C         35.33455        67.14716         0.75873
C         34.21626        67.85342         0.27194
C         35.44619        69.99190         0.52576
C         34.21445        69.29307         0.23477
C         35.54660        71.41687         0.14280
C         34.28988        72.17448        -0.21569
C         35.46382        74.30816         0.23088
C         34.26702        73.64487        -0.04862
C         38.00011        44.21427        -0.51489
C         37.97361        45.59715        -0.38444
C         36.76755        46.36702        -0.61289
C         37.94479        48.49895        -0.15479
C         36.70316        47.74853        -0.46442
C         37.84975        49.89259         0.32482
C         36.70501        50.61161        -0.04956
C         37.84591        52.65740         0.68211
C         36.72898        52.02878         0.04993
C         37.99294        54.07002         0.55386
C         37.18880        54.63922        -0.43599
C         37.72797        57.05187         0.99977
C         37.12320        56.74852        -0.21349
C         37.25713        58.23675         1.60453
C         36.48040        59.15930         0.88667
C         37.50400        61.32795         2.07698
C         36.39470        60.58973         1.30332
C         37.42064        62.88086         2.19789
C         36.51235        63.59571         1.20557
C         37.71719        65.73175         1.59588
C         36.50211        64.99964         1.21700
C         37.73076        67.13746         1.49894
C         36.42191        67.89247         1.48859
C         37.80501        70.03494         1.19459
C         36.54235        69.33605         1.04157
C         37.85413        71.48644         0.99673
C         36.71579        72.18490         0.59205
C         37.87018        74.32330         0.83615
C         36.69047        73.61888         0.52672
C         40.60921        40.11486        -1.58268
C         40.51730        41.46596        -0.95038
C         39.31964        42.05166        -0.70283
C         40.48207        44.21353        -0.16486
C         39.20313        43.41507        -0.07206
C         40.41930        45.61727         0.12392
C         39.18438        46.28122         0.01117
C         40.31958        48.37381         0.81562
C         39.20650        47.74081         0.09060
C         40.13421        49.71128         1.38127
C         38.95226        50.52014         0.97056
C         40.03523        52.60684         1.96195
C         38.92164        51.89760         1.21327
C         40.12133        54.11281         1.72845
C         39.06730        54.81991         1.21400
C         40.07661        57.09464         1.90061
C         38.81472        56.26202         1.72297
C         40.09292        58.48955         2.09321
C         38.92602        59.29012         2.39726
C         40.07940        61.38772         2.08502
C         38.83533        60.66024         2.22832
C         40.10180        62.78965         2.14551
C         38.83557        63.58796         2.45036
C         40.23922        65.65262         1.71494
C         38.89107        65.00293         1.91036
C         40.23883        67.16801         1.86452
C         38.92283        67.91095         1.98821
C         40.24650        70.04890         1.42010
C         38.95391        69.34285         1.50382
C         40.27012        71.52029         1.51152
C         39.05938        72.21268         1.25807
C         40.29492        74.31945         1.40468
C         39.06269        73.63978         1.16928
C         43.46458        35.94818        -2.04105
C         43.31708        37.35613        -1.75195
C         42.08404        37.96344        -1.81972
C         43.11094        40.12328        -1.00543
C         41.93818        39.42742        -1.67628
C         42.98343        41.62274        -1.02756
C         41.76933        42.21325        -0.79643
C         42.91959        44.39962        -0.33192
C         41.70327        43.62839        -0.45560
C         42.87425        45.73675         0.16692
C         41.62104        46.35854         0.38008
C         42.73877        48.40699         1.33521
C         41.54270        47.72241         0.85661
C         42.68284        49.70868         1.77927
C         41.38392        50.40840         1.90341
C         42.63189        52.66476         2.06945
C         41.37552        51.90915         1.80095
C         42.62152        54.14421         2.27052
C         41.30826        54.82514         2.28156
C         42.59987        57.03693         2.07335
C         41.32036        56.35192         2.21346
C         42.51155        58.42142         1.45637
C         41.31869        59.22451         1.94551
C         42.58481        61.34414         1.91496
C         41.31774        60.62286         1.97961
C         42.56009        62.78344         2.07902
C         41.36393        63.47416         2.20909
C         42.67836        65.67519         2.25366
C         41.36629        64.96356         2.52914
C         42.67216        67.16721         2.45962
C         41.41519        67.83888         1.96002
C         42.73183        70.05388         2.02059
C         41.50787        69.29635         1.69912
C         42.72572        71.47371         1.96979
C         41.47997        72.20358         1.72293
C         42.71752        74.43512         1.95535
C         41.46723        73.63395         1.67821
C         46.09693        33.40153        -2.65663
C         44.84257        33.96197        -2.48358
C         45.92086        36.04426        -1.56531
C         44.69393        35.32583        -2.08095
C         45.80961        37.54342        -1.64521
C         44.54212        38.15226        -1.57054
C         45.61171        40.33803        -1.42220
C         44.44846        39.55760        -1.42447
C         45.51775        41.81194        -1.41692
C         44.18181        42.46465        -1.20020
C         45.37110        44.56805        -0.51793
C         44.16416        43.84004        -0.67650
C         45.33109        45.85322         0.10659
C         44.10146        46.42018         0.45370
C         45.33869        48.49485         1.38972
C         44.03332        47.67273         1.24149
C         45.19671        49.90989         1.73472
C         43.91025        50.35650         2.41059
C         45.09650        52.69086         2.66092
C         43.83126        51.90102         2.54540
C         45.08701        54.17516         2.47594
C         43.80411        54.86246         2.33417
C         45.05515        57.00200         2.05153
C         43.81985        56.32826         2.18632
C         45.11721        58.44132         1.74936
C         43.82093        59.19078         1.51696
C         45.08236        61.32989         1.63618
C         43.78201        60.63904         1.77975
C         45.06780        62.82395         1.75673
C         43.85964        63.50304         2.35379
C         45.11592        65.69528         1.91147
C         43.84330        64.99746         2.09121
C         45.13302        67.16190         1.90884
C         43.93612        67.88152         2.06562
C         45.19644        69.99788         2.14435
C         43.95645        69.30498         2.09990
C         45.19269        71.45493         2.35150
C         43.93629        72.19494         2.13721
C         45.18941        74.29799         1.87554
C         43.99971        73.62452         1.98138
C         47.27741        34.16689        -2.51109
C         48.36984        36.32578        -2.07924
C         47.22642        35.50710        -2.11005
C         48.29199        37.71174        -1.81343
C         46.98528        38.32557        -1.63329
C         48.07633        40.56042        -1.54192
C         46.88907        39.73603        -1.52803
C         47.98378        41.94834        -1.38690
C         46.73423        42.61307        -1.20241
C         47.83196        44.81621        -0.86808
C         46.64089        43.97695        -0.88599
C         47.81926        46.04547        -0.26158
C         46.63793        46.47608         0.57784
C         47.68256        48.81915         0.59198
C         46.56070        47.98014         0.76528
C         47.57511        50.24384         1.03382
C         46.34122        50.70902         1.73229
C         47.59159        52.67154         2.64109
C         46.34786        51.99315         2.31187
C         47.53717        54.22266         2.91878
C         46.26883        54.86979         2.54990
C         47.43522        57.06150         2.92502
C         46.38347        56.29950         2.09276
C         47.48185        58.52289         2.54575
C         46.35775        59.18505         2.12449
C         47.52055        61.36137         2.10067
C         46.35201        60.62598         1.92774
C         47.52493        62.79794         1.93860
C         46.35226        63.52837         1.90895
C         47.57470        65.66595         1.61711
C         46.29903        64.97104         1.83394
C         47.60372        67.17584         1.61486
C         46.35184        67.89231         1.85426
C         47.69808        70.00507         2.00515
C         46.41519        69.29384         2.06623
C         47.72780        71.42535         1.92017
C         46.52147        72.19273         2.30407
C         47.67529        74.22192         1.33684
C         46.54346        73.71319         2.19182
C         49.44168        38.53147        -1.83336
C         50.54731        40.73733        -1.71557
C         49.37122        39.93307        -1.70704
C         50.49929        42.13614        -1.68093
C         49.16737        42.78329        -1.66728
C         50.32017        45.11855        -1.64937
C         49.04880        44.27481        -1.53807
C         50.31949        46.35089        -0.75769
C         49.04898        46.86675        -0.15530
C         50.15952        49.11620         0.09984
C         48.92426        48.30935         0.14628
C         50.16196        50.49702         0.78408
C         48.84604        51.04620         1.23635
C         50.04978        52.83403         2.52761
C         48.87284        52.16689         2.19653
C         50.01495        54.19925         2.96935
C         48.81714        54.93617         2.90632
C         49.98637        57.08785         2.97902
C         48.80143        56.37590         2.88685
C         50.01012        58.52522         2.91159
C         48.69593        59.28231         3.02248
C         49.93700        61.38593         2.64364
C         48.76552        60.69854         2.49294
C         49.93997        62.89726         2.69218
C         48.86818        63.44949         1.75315
C         49.96634        65.62794         2.17783
C         48.81568        64.94056         1.89285
C         49.88227        67.03839         2.43359
C         48.84889        67.84694         2.03113
C         50.14752        69.96729         1.60637
C         48.92267        69.29478         1.96162
C         50.08331        71.34563         1.21450
C         48.88413        72.08731         1.45702
C         50.01730        74.23156         0.54693
C         48.81102        73.50911         1.12472
C         51.65572        42.94104        -1.56766
C         52.78325        45.07991        -1.18104
C         51.61668        44.34238        -1.44107
C         52.78957        46.46592        -0.87607
C         51.51022        47.27375        -0.98516
C         52.63025        49.09642         0.32519
C         51.46862        48.45972        -0.05039
C         52.60370        50.33237         1.10103
C         51.39795        50.95381         1.42681
C         52.61671        52.67750         2.92196
C         51.33051        52.07546         2.40425
C         52.58472        54.14932         3.39685
C         51.26966        54.88882         3.39244
C         52.52746        57.12982         3.03400
C         51.25425        56.43030         3.51029
C         52.50043        58.51966         2.91060
C         51.21848        59.21079         2.95441
C         52.49171        61.44664         2.81352
C         51.19294        60.69199         2.99944
C         52.45814        62.83473         2.28402
C         51.25734        63.55618         2.33874
C         52.42000        65.59231         1.58580
C         51.26230        64.94589         2.10873
C         52.45120        67.00737         1.26525
C         51.65865        67.94936         1.89149
C         52.39741        69.80649         0.56238
C         51.37879        69.25944         1.36896
C         52.35075        71.18771         0.21977
C         51.21367        71.96695         0.57711
C         52.29302        73.91513        -0.42692
C         51.20094        73.35216         0.20994
C         53.94606        47.12748        -0.48561
C         55.09690        49.07933         0.43130
C         53.91728        48.45196         0.05727
C         55.10234        50.30033         1.17405
C         53.85133        50.89056         1.56382
C         55.10401        52.37195         2.96010
C         53.86474        52.01147         2.43019
C         55.07022        54.43184         3.51303
C         53.81473        55.01797         3.31474
C         55.02486        57.11873         2.91605
C         53.77953        56.41427         3.04757
C         55.02197        58.56060         2.71758
C         53.74188        59.27867         2.74032
C         54.97096        61.44536         2.46693
C         53.73101        60.66122         2.65078
C         54.91537        62.82384         1.83707
C         53.58932        63.45573         1.71740
C         54.65577        65.28802         0.45726
C         53.54985        64.79087         1.26220
C         54.48693        66.59437        -0.22485
C         53.35217        67.49451         0.20336
C         54.54182        69.53278        -0.58809
C         53.46257        68.97279         0.06749
C         54.62284        70.97031        -0.73653
C         53.48469        71.76569        -0.41619
C         54.61442        73.73202        -1.32066
C         53.47400        73.16039        -0.73029
C         56.32839        50.91472         1.51307
C         57.51167        52.84979         2.58555
C         56.35157        52.02014         2.38547
C         57.50109        54.22553         2.84771
C         56.29087        55.01155         3.10792
C         57.55014        57.10985         2.82308
C         56.25506        56.41277         2.92142
C         57.53818        58.59827         2.59581
C         56.21436        59.24746         2.53113
C         57.45010        61.36542         1.70091
C         56.26012        60.70695         2.38887
C         57.23903        62.63957         0.96829
C         56.04235        63.32757         1.00864
C         56.70676        64.90325        -0.94176
C         55.80664        64.55179         0.24263
C         56.74002        66.43844        -1.24795
C         55.66998        67.21071        -0.86482
C         56.81722        69.32145        -1.54524
C         55.49435        68.64331        -1.36421
C         56.95363        70.72232        -1.41773
C         55.82137        71.59549        -1.18387
C         56.90840        73.70123        -2.15096
C         55.82072        73.00791        -1.50326
C         58.70973        54.94756         2.54865
C         59.88779        57.03351         1.96489
C         58.74883        56.32858         2.44719
C         59.85423        58.39069         1.62860
C         58.67897        59.20453         1.86623
C         59.65312        61.01985         0.52287
C         58.59820        60.48795         1.35347
C         59.48091        62.21686        -0.15442
C         58.44685        63.25449         0.29416
C         58.96396        64.37453        -1.82028
C         58.07837        64.22129        -0.81799
C         58.90005        66.41091        -2.58912
C         57.82598        67.11561        -1.98008
C         59.08088        69.18926        -2.53894
C         57.90378        68.53014        -1.95659
C         59.30618        70.60084        -2.21242
C         58.26974        71.24147        -1.52133
C         59.37579        73.55676        -2.84906
C         58.25354        73.31199        -2.04402
C         60.97475        59.00046         0.97285
C         62.00995        60.84056        -0.30611
C         60.88618        60.25421         0.40140
C         61.85286        61.97829        -1.03277
C         60.51802        62.58348        -1.13806
C         61.49659        64.66669        -2.34590
C         60.32762        63.82460        -1.95398
C         61.44763        66.07698        -2.63533
C         60.22875        66.87502        -2.68741
C         61.60336        69.02805        -2.88253
C         60.32252        68.33072        -2.86665
C         61.64658        70.45284        -2.93983
C         60.49340        71.26736        -2.63419
C         61.75495        73.26064        -3.30378
C         60.54226        72.70378        -2.85780
C         62.87780        62.50252        -2.00886
C         63.92559        64.66870        -2.59247
C         62.75341        63.99195        -2.30132
C         63.92810        66.06515        -2.84462
C         62.68971        66.78745        -2.82509
C         64.02002        68.87639        -3.18587
C         62.76907        68.22599        -2.96238
C         64.07409        70.29244        -3.35884
C         62.89250        71.07838        -3.23092
C         64.18006        73.11016        -3.73341
C         62.94857        72.50121        -3.41906
C         65.15784        66.71463        -3.08422
C         66.45761        68.75891        -3.54895
C         65.23130        68.10995        -3.27903
C         66.51852        70.15698        -3.74242
C         65.31759        70.93141        -3.64499
C         66.61745        72.96196        -4.12944
C         65.36900        72.34904        -3.83760
C         67.74468        70.81660        -4.03134
C         67.78018        72.19696        -4.22161
O         50.99302        67.60545         3.07796
O         41.09618        55.61300         3.50980
O         38.94523        48.38958        -1.24521
O         24.25496        72.74182        -0.37893
O         42.21341        52.32727         0.68057
O         48.81822        43.63981        -2.84214
O         58.58551        65.09962        -2.95912
O         50.09724        46.12209         0.65332
O         51.87449        61.30516         4.15543
O         44.68007        58.82284         0.37162
O         51.82684        54.29594         4.63220
O         53.27264        66.73949        -1.06661
O         41.08483        69.56310         0.28670
O         45.94997        71.80323         3.59551
O         58.52517        72.47105        -0.92792
O         30.55583        69.95380        -2.53253
O         47.64343        66.43502         0.34174
O         44.73724        42.33483        -2.56628
O         59.39929        68.82000        -3.90950
O         36.62129        63.16281         3.32692
O         50.17030        50.37598        -0.66429
O         57.29920        61.38410         3.16645
O         37.67408        55.79242        -1.06194
O         55.11010        53.16925         4.10811
O         55.13939        62.64022         3.28899
O         44.30839        52.29931         3.86636
O         51.84797        51.76441         3.75698
O         28.01557        67.42556        -3.37568
O         35.20590        71.69320        -1.26473
O         47.96882        51.28266         0.07641
O         32.69122        64.36209        -2.30789
O         47.50846        53.24056         3.98006
O         37.78345        58.60528         2.84307
O         44.80406        47.60476         2.46460
O         40.43859        49.81165         2.82379
O         57.82894        58.04446         3.92605
O         36.31780        60.77032         2.72440
O         33.35613        61.44598        -2.41207
O         60.15155        62.51356        -2.61348
O         45.00022        62.21703         0.43558
O         46.83804        74.23625         3.53109
H         46.41808        73.60683         4.16387
O         42.21229        58.16473         0.04352
H         43.07586        58.21769        -0.43276
O         42.82452        75.53095         1.03922
H         42.84973        75.16990         0.12966
O         30.14092        71.07253         0.93094
H         30.01952        71.92349         1.40220
O         35.57985        55.07874        -3.01736
H         36.47543        55.47305        -2.92313
O         40.59556        65.38526         0.31997
H         39.98829        65.89470        -0.25738
O         48.47986        59.42017         4.48031
H         49.30026        59.79461         4.87024
O         49.59345        63.25826         4.05059
H         50.29211        62.88273         4.63213
O         43.00278        39.77523         0.42219
H         43.23223        38.82555         0.51768
O         39.73931        52.49739         3.38402
H         38.86993        52.91804         3.55148
O         41.12981        65.13499         3.95110
H         40.30493        64.62573         4.19125
O         50.36046        45.60187        -3.02056
H         49.95506        44.88825        -3.57351
O         64.19849        62.17142        -1.58025
H         64.35144        62.57625        -0.70231
O         49.63482        75.00441        -0.60098
H         49.38273        74.38597        -1.31671
O         38.29072        56.00330         3.06028
H         39.07071        55.83739         3.64306
O         47.00121        57.00974         4.30405
H         47.53037        57.67901         4.80071
O         54.87903        68.50007        -2.68889
H         54.10531        67.89905        -2.56568
O         38.86889        63.77896         3.90354
H         37.90565        63.61229         4.18744
O         49.30884        63.12749         0.40412
H         48.66493        63.51425        -0.22663
O         28.10065        75.56816        -0.98539
H         27.80379        75.42428        -0.06375
O         59.13675        64.03500         1.32871
H         59.10250        63.52347         2.16596
O         46.91820        56.28041         0.73168
H         46.18452        56.09090         0.10971
O         51.46511        47.86987        -2.30329
H         51.22811        47.15962        -2.94756
O         46.87715        45.91040         1.91086
H         46.17865        46.28484         2.50258
O         51.19539        56.74023         4.93463
H         51.58073        55.96292         5.40758
O         32.33630        62.55719         0.89220
H         32.96894        62.39946         1.62565
O         38.72323        68.03142         3.46588
H         38.82047        67.12979         3.84494
O         56.04276        64.30589        -2.08819
H         56.61756        64.47244        -2.86994
O         27.97948        65.74095        -0.14576
H         27.94019        64.82992         0.21493
O         38.97591        43.16671         1.37050
H         38.95831        44.03977         1.81773
O         45.96164        35.74383        -0.12012
H         46.07265        34.77291        -0.03359
O         36.62246        61.49255        -0.82538
H         36.16072        61.82684        -1.62512
O         44.07543        63.38577         3.80050
H         43.33933        63.85755         4.24901
O         41.35108        40.10849        -2.83489
O         36.00127        67.95356         2.90184
H         36.80188        68.21682         3.41938
O         42.60153        67.38527         3.91562
H         41.98578        66.69709         4.27560
O         43.92354        49.81336         3.75454
H         44.28389        50.52053         4.34365
H         23.22025        75.20130        -2.37215
H         25.75410        75.29010        -1.84409
H         28.43614        74.50591        -2.70854
H         30.56655        75.33846        -0.77202
H         32.98835        75.40310        -0.18448
H         35.46349        75.40743         0.28869
H         37.87368        75.42246         0.79117
H         40.32087        75.41773         1.34840
H         42.60399        74.89705         2.97698
H         45.14797        75.39067         1.74198
H         47.65446        75.28657         1.05776
H         50.35681        74.97697         1.31830
H         52.26209        74.98125        -0.69700
H         54.59564        74.79852        -1.59100
H         56.65138        74.57016        -2.77580
H         59.37437        74.41864        -3.53343
H         61.79767        74.33938        -3.51581
H         64.22080        74.19874        -3.88746
H         66.65862        74.05006        -4.28042
H         22.47082        69.26467        -2.50986
H         21.18182        71.40680        -2.56570
H         21.16741        73.87013        -2.67887
H         25.04720        65.06085        -2.64735
H         23.72414        67.17971        -2.40772
H         27.69541        60.85254        -2.65775
H         26.42135        62.96707        -2.80334
H         30.39577        56.61210        -2.67775
H         29.05995        58.72145        -2.71304
H         32.58114        52.47029        -2.00481
H         31.57452        54.54627        -2.39107
H         34.62413        48.01985        -1.06554
H         33.58581        50.22075        -1.51916
H         37.07686        43.67372        -0.77391
H         35.85845        45.81830        -0.90261
H         39.67675        39.50924        -1.60697
H         38.38785        41.49556        -0.89233
H         42.56096        35.38039        -2.31370
H         41.19646        37.36725        -2.08143
H         46.18068        32.35678        -2.98767
H         43.94174        33.37519        -2.71656
H         48.24509        33.71972        -2.78259
H         49.34600        35.88938        -2.34308
H         50.42578        38.06032        -1.97840
H         51.52741        40.23749        -1.74601
H         52.63262        42.43820        -1.48949
H         53.73995        44.53522        -1.12048
H         54.90830        46.59100        -0.49326
H         56.06084        48.60023         0.20352
H         57.26449        50.52949         1.08359
H         58.47217        52.42761         2.24708
H         59.60577        54.36712         2.27989
H         60.79935        56.45864         1.74084
H         61.90680        58.42377         0.87699
H         62.97728        60.31657        -0.29657
H         62.71369        61.95821        -2.98028
H         64.87887        64.12090        -2.58483
H         66.07915        66.11488        -3.11409
H         67.37825        68.16112        -3.62030
H         68.66768        70.22420        -4.10616
H         68.73671        72.68933        -4.44661
