         668
 CSIRO Nanostructure Databank - Neutral Graphene Oxide Data Set
C          6.37654        31.90085        -2.05579
C          6.36641        33.26571        -1.96658
C          8.71283        27.59110        -1.39132
C          8.65109        28.98794        -1.22695
C          7.53248        29.73290        -1.69172
C          8.58651        31.81475        -0.94994
C          7.48588        31.12130        -1.57031
C          8.58958        33.22817        -0.94355
C          7.48912        33.98962        -1.42596
C          8.54203        36.15744        -0.80151
C          7.46396        35.40459        -1.31756
C          8.47343        37.53038        -0.50325
C         11.14021        23.30117        -1.08796
C         11.03760        24.67518        -0.84332
C          9.89706        25.44169        -1.14184
C         10.89562        27.55407        -0.27181
C          9.82812        26.85182        -0.94557
C         10.85996        28.93040        -0.05356
C          9.72549        29.67854        -0.54994
C         10.64595        31.74231         0.52946
C          9.67040        31.06499        -0.39867
C         10.83089        33.20016         0.24059
C          9.80814        33.92760        -0.51939
C         10.72940        36.09405         0.43060
C          9.81007        35.44276        -0.52051
C         10.91387        37.58914         0.22644
C          9.58046        38.28434        -0.01067
C         10.76502        40.42242         0.32205
C          9.55222        39.66558         0.08949
C         10.77028        41.85524         0.07550
C         13.45687        19.01637        -1.20602
C         13.46117        20.34509        -0.67822
C         12.40284        21.18477        -1.11022
C         13.41340        23.14488        -0.06000
C         12.31487        22.54456        -0.77973
C         13.24268        24.56279         0.43224
C         12.29793        25.39852        -0.43942
C         13.24023        27.48286         0.72152
C         12.03846        26.75495         0.20234
C         13.21060        28.95671         0.79430
C         12.00807        29.64613         0.52268
C         13.12068        31.77938         1.12453
C         11.96982        31.05105         0.71638
C         13.11327        33.25793         1.27359
C         11.83551        33.88795         0.88959
C         13.32030        36.36788         1.71756
C         11.56343        35.28417         1.14530
C         13.20127        37.67280         1.31405
C         11.82793        38.34542         1.24243
C         13.20659        40.56732         0.87653
C         11.91502        39.78645         0.76882
C         13.21606        41.72559        -0.14056
C         11.95489        42.55780        -0.05611
C         13.25570        44.67039        -0.18612
C         12.03302        43.97809        -0.15280
C         13.33377        46.08679        -0.12983
C         15.95247        14.68754        -1.15224
C         15.78750        16.00823        -0.74169
C         14.66309        16.75580        -1.25734
C         15.80255        18.84095         0.49479
C         14.20051        17.93900        -0.67680
C         15.70202        20.27445         0.51075
C         14.52511        20.95502         0.12943
C         15.49805        23.00619         1.34514
C         14.47235        22.37866         0.39229
C         15.70887        24.51134         1.08076
C         14.58070        25.30488         0.52887
C         15.54574        27.45631         1.63310
C         14.60832        26.84091         0.54711
C         15.64348        28.94040         1.33893
C         14.39159        29.66523         1.11918
C         15.60801        31.83518         1.31026
C         14.34140        31.07015         1.25486
C         15.57215        33.22454         1.91881
C         14.28864        33.98370         1.50392
C         15.60698        36.08116         1.11624
C         14.42654        35.45807         1.45731
C         15.68821        37.58402         1.27234
C         14.41702        38.35387         0.94454
C         15.71798        40.31127         0.20392
C         14.44206        39.69717         0.71894
C         15.75647        41.84586         0.31372
C         14.47181        42.54220        -0.05213
C         15.78719        44.61197        -0.18424
C         14.50040        43.90546        -0.15938
C         15.81772        46.04691        -0.08792
C         14.55402        46.78289        -0.03762
C         15.80016        48.91992         0.09815
C         14.59157        48.19759         0.01815
C         15.83801        50.31596         0.15626
C         18.53261        10.45159        -1.57409
C         18.47307        11.84649        -1.35173
C         17.24834        12.57130        -1.38259
C         18.37064        14.62832        -0.67639
C         17.18034        13.94285        -1.04335
C         18.26444        15.94119        -0.01870
C         16.88958        16.63360         0.06930
C         18.22649        18.83763         0.33868
C         16.94621        18.10477         0.31960
C         18.20238        20.30216         0.68072
C         16.90583        21.00326         0.86449
C         18.10629        23.02106         1.60502
C         16.85102        22.30941         1.26896
C         18.11939        24.50346         1.86284
C         16.77483        25.22870         1.91564
C         18.06975        27.36247         1.55546
C         16.87155        26.71868         1.63807
C         18.10354        28.84662         1.61717
C         16.83816        29.59198         1.38988
C         18.20015        31.73713         1.40874
C         16.89389        31.06231         1.25938
C         18.26433        33.20748         1.74503
C         16.91832        33.97177         1.70268
C         18.10799        36.00137         0.53008
C         16.91021        35.38401         1.22958
C         18.12898        37.51102         0.67777
C         16.97231        38.20707         0.76263
C         18.22914        40.36240         0.22777
C         16.99151        39.72108         0.83783
C         18.19767        41.68357        -0.23420
C         16.91162        42.41150        -0.51121
C         18.23061        44.57659        -0.50507
C         16.97534        43.90705        -0.31831
C         18.25828        46.02663        -0.40849
C         17.03675        46.71980        -0.10802
C         18.31212        48.91053        -0.20086
C         17.09623        48.16811         0.30269
C         18.29943        50.33548        -0.12952
C         17.07174        51.04297         0.13979
C         18.31738        53.16675         0.25662
C         17.10723        52.44246         0.31442
C         18.37590        54.57489         0.56279
C         20.99285         6.11858        -1.37247
C         21.00593         7.63860        -1.44504
C         19.81199         8.32244        -1.60584
C         20.98157        10.47337        -1.34379
C         19.75585         9.74803        -1.52171
C         20.92668        11.87957        -1.16730
C         19.70040        12.55627        -1.10395
C         20.80307        14.66116        -0.43026
C         19.64032        13.97561        -0.77327
C         20.79509        16.15211        -0.32205
C         19.49822        16.74440         0.16077
C         20.71684        18.80653         0.80346
C         19.49270        18.08377         0.47216
C         20.67383        20.21536         1.19750
C         19.43042        20.92816         1.18857
C         20.58085        23.05759         1.54540
C         19.40908        22.32999         1.39932
C         20.57550        24.50014         1.14450
C         19.35874        25.27559         1.59313
C         20.61321        27.36267         1.23202
C         19.35321        26.64754         1.49310
C         20.63719        28.79369         1.06698
C         19.40538        29.56209         1.39219
C         20.57244        31.73898         0.78872
C         19.35035        31.03768         1.22918
C         20.66867        33.21109         0.93761
C         19.43938        33.94543         1.10450
C         20.63957        36.04544         0.69300
C         19.42007        35.32382         0.86685
C         20.68325        37.44792         0.52625
C         19.43887        38.24978         0.87344
C         20.74332        40.38139         0.36470
C         19.43301        39.65179         0.32775
C         20.70503        41.74158        -0.30577
C         19.41412        42.32187        -0.83370
C         20.59895        44.51659        -1.20840
C         19.39620        43.83874        -0.72240
C         20.61754        46.04712        -1.19494
C         19.44883        46.74540        -0.62608
C         20.72211        48.88299        -0.71063
C         19.48370        48.18390        -0.50181
C         20.69651        50.35257        -0.77173
C         19.48924        51.09008        -0.34814
C         20.77353        53.24848        -0.16365
C         19.50992        52.47712        -0.12697
C         20.83019        54.55760         0.53758
C         19.57386        55.25899         0.72396
C         20.81533        57.26799         1.41858
C         19.63496        56.65807         1.10704
C         20.91896        58.67888         1.95467
C         23.73266         3.67186        -2.54455
C         22.44184         4.29469        -2.35662
C         23.53808         6.14253        -1.18363
C         22.32403         5.47350        -1.68815
C         23.47735         7.63044        -0.97316
C         22.22194         8.36554        -1.25991
C         23.46520        10.50858        -0.96580
C         22.22830         9.76692        -1.25142
C         23.42891        11.86165        -0.75819
C         22.21498        12.66646        -1.13179
C         23.32710        14.66985         0.02408
C         22.07551        13.92614        -0.31362
C         23.22997        16.11850         0.25198
C         22.01745        16.75966         0.32643
C         23.14369        18.72057         1.37339
C         21.92815        18.11886         0.80016
C         23.10779        20.21232         1.75445
C         21.83907        20.90621         1.55082
C         23.11171        23.08975         1.55760
C         21.83961        22.36305         1.94529
C         23.09281        24.52510         1.40729
C         21.87149        25.23223         1.34671
C         23.12635        27.30802         0.79862
C         21.82284        26.64216         1.18582
C         23.09143        28.81261         0.77377
C         21.82573        29.47657         0.75913
C         23.06921        31.66590         0.20399
C         21.78485        30.93645         0.46926
C         23.12313        33.14255         0.41411
C         21.89248        33.84538         0.77348
C         23.21641        36.04863         0.70683
C         21.91104        35.31519         0.88320
C         23.14320        37.43293         0.18399
C         21.89806        38.11154         0.21054
C         23.18100        40.25925        -0.21948
C         21.85636        39.53739        -0.30683
C         23.16234        41.76907        -0.05579
C         21.86123        42.39633        -0.52559
C         23.08597        44.50338        -0.81463
C         21.89860        43.70188        -1.32180
C         23.09167        45.98140        -0.70182
C         21.96141        46.77758        -1.34112
C         23.19817        48.89056        -0.72141
C         21.94203        48.21625        -0.86423
C         23.26137        50.29444        -0.58932
C         22.03638        51.07786        -0.79338
C         23.30015        53.01675         0.24664
C         22.05705        52.52246        -0.41439
C         23.31798        54.38351         0.84002
C         22.03242        55.12962         0.88549
C         23.41929        57.21857         1.40120
C         22.06437        56.48824         1.42948
C         23.36893        58.68545         1.24666
C         22.16992        59.39035         1.46770
C         23.30596        61.47099         0.89169
C         22.14910        60.78131         1.28935
C         24.88472         4.24891        -2.10441
C         26.02511         6.21520        -1.13640
C         24.87842         5.54489        -1.45118
C         25.98522         7.60864        -0.53711
C         24.79619         8.34654        -1.18676
C         25.94310        10.48811        -0.78903
C         24.75122         9.81278        -0.85857
C         25.92482        11.99976        -0.87193
C         24.66937        12.52666        -0.18403
C         25.81822        14.71846        -0.01185
C         24.64507        14.03707        -0.18379
C         25.81823        16.18936         0.17165
C         24.48309        16.88480         0.33768
C         25.62669        18.83999         1.31739
C         24.44686        18.16812         1.02241
C         25.58851        20.25929         1.60443
C         24.37171        20.96103         1.66491
C         25.57017        23.09404         1.07590
C         24.30829        22.39087         1.51985
C         25.56228        24.58606         1.32455
C         24.35607        25.24335         1.40406
C         25.60123        27.46051         1.29399
C         24.29755        26.74356         1.60208
C         25.55932        28.82460         0.98887
C         24.31400        29.48181         0.68140
C         25.62815        31.64392         0.24483
C         24.35590        30.89551         0.25175
C         25.55949        33.06413        -0.26549
C         24.32317        33.78983         0.26388
C         25.53730        35.89433        -0.35108
C         24.52118        35.24987         0.62310
C         25.61266        37.37554        -0.05282
C         24.34531        38.11344        -0.12312
C         25.67801        40.25285        -0.29717
C         24.36353        39.55300        -0.19978
C         25.66336        41.71792        -0.57823
C         24.37933        42.44163        -0.62952
C         25.62161        44.51691        -1.10062
C         24.38128        43.78166        -0.84659
C         25.60928        45.90539        -1.11479
C         24.44750        46.65788        -0.50652
C         25.65262        48.79776        -0.71888
C         24.44530        48.14722        -0.76135
C         25.73984        50.16802        -0.12644
C         24.49508        50.97350        -0.35965
C         25.80889        53.03392         0.07769
C         24.56385        52.33931        -0.09946
C         25.82145        54.38105         0.46477
C         24.61755        55.10386         0.80376
C         25.83783        57.24665         0.67262
C         24.62494        56.48638         0.95617
C         25.75472        58.66514         0.59243
C         24.54681        59.37362         0.81958
C         24.48799        60.78607         0.65833
C         27.25124         8.41790        -0.73792
C         28.50435        10.57845        -0.92099
C         27.21786         9.77438        -0.80273
C         28.42021        11.99677        -0.37647
C         27.17219        12.67921        -0.35398
C         28.28375        14.73751         0.42013
C         27.10300        14.02541         0.02203
C         28.23625        16.10066         0.82708
C         26.98930        16.84180         0.78297
C         28.06657        18.80287         1.92628
C         26.89469        18.14486         1.23851
C         28.04938        20.30469         1.73836
C         26.84484        20.96355         1.62390
C         28.09817        23.09656         1.16233
C         26.81294        22.46727         1.71693
C         28.05258        24.59531         1.36209
C         26.83551        25.29115         1.35652
C         28.06966        27.41648         1.18406
C         26.84218        26.74282         1.35302
C         28.13467        28.88775         1.17367
C         26.78644        29.64107         1.07154
C         28.08246        31.74078         0.43169
C         26.81418        31.03031         0.54958
C         28.08793        33.08327         0.11908
C         26.85844        33.81872        -0.07178
C         28.11782        35.90583        -0.44777
C         26.87054        35.18644        -0.22567
C         28.11573        37.29457        -0.72593
C         26.93533        38.08963        -0.37075
C         28.05430        40.13968        -1.17347
C         26.89198        39.50175        -0.68652
C         28.07609        41.58893        -1.29511
C         26.76380        42.30538        -1.43431
C         28.08518        44.47445        -1.26468
C         26.84236        43.79788        -1.27095
C         28.13391        45.89451        -1.24399
C         26.86817        46.62536        -1.34495
C         28.20109        48.76711        -0.83554
C         26.90252        48.12626        -1.10533
C         28.22546        50.17280        -0.57949
C         27.02188        50.91197        -0.38795
C         28.30205        52.99205        -0.25253
C         27.04958        52.30084        -0.19743
C         28.28002        54.50482        -0.22926
C         27.15480        55.08180         0.65631
C         27.03495        56.57117         0.47176
C         29.57181        12.67073         0.00540
C         30.72298        14.74551         0.73308
C         29.54304        14.04480         0.40514
C         30.69551        16.11112         1.09627
C         29.42899        16.78566         1.18459
C         30.56826        18.85147         1.84154
C         29.39202        18.15729         1.59224
C         30.51148        20.28371         2.22590
C         29.28247        21.04332         1.90482
C         30.55756        23.16330         1.81620
C         29.32305        22.41547         1.73567
C         30.52865        24.59876         1.54853
C         29.30101        25.28584         1.36145
C         30.51647        27.37161         0.85042
C         29.30046        26.70151         1.12710
C         30.46986        28.74528         0.21502
C         29.33119        29.56986         0.73120
C         30.59714        31.67542         0.11456
C         29.39779        31.06732         0.82727
C         30.58004        33.01420        -0.21381
C         29.39232        33.85398         0.19718
C         30.52527        35.83633        -0.93910
C         29.34055        35.20615        -0.47076
C         30.48755        37.19108        -1.36790
C         29.29250        37.95779        -1.17191
C         30.44897        40.09672        -1.81067
C         29.24217        39.37972        -1.38703
C         30.50010        41.59797        -1.70905
C         29.25698        42.30347        -1.37136
C         30.55485        44.41372        -1.27058
C         29.31068        43.73740        -1.30831
C         30.58175        45.83463        -1.14309
C         29.36337        46.58390        -1.14162
C         30.65654        48.69528        -0.82420
C         29.38812        48.02266        -0.95744
C         30.67592        50.10124        -0.66084
C         29.48676        50.85501        -0.54724
C         29.48038        52.28122        -0.40536
C         31.88538        16.85060         1.35579
C         33.06304        18.98465         1.78638
C         31.84726        18.20883         1.68504
C         33.07559        20.35043         1.99239
C         31.80663        21.06316         2.28282
C         33.02684        23.29009         2.28700
C         31.75608        22.51853         2.05696
C         32.99929        24.67306         1.68858
C         31.75114        25.31602         1.45105
C         32.98234        27.36886         0.82209
C         31.73503        26.68684         1.01929
C         32.96959        28.74108         0.35129
C         31.79563        29.46616         0.22164
C         33.00156        31.53716        -0.37988
C         31.80802        30.88609        -0.06154
C         33.02291        32.95820        -0.65989
C         31.76699        33.70489        -0.68419
C         33.07010        35.81278        -1.14098
C         31.75556        35.06327        -0.99327
C         33.03803        37.09864        -1.98994
C         31.70769        37.85325        -1.90773
C         33.00270        40.09351        -1.66038
C         31.74394        39.35780        -1.93322
C         32.99852        41.48577        -1.46848
C         31.79166        42.27380        -1.50263
C         33.04622        44.35964        -1.10793
C         31.79306        43.65538        -1.29240
C         33.04530        45.75911        -0.97826
C         31.84235        46.52329        -1.00310
C         31.85283        47.92600        -0.86607
C         34.27484        21.13329         1.87916
C         35.48539        23.27054         1.78900
C         34.28262        22.51673         1.93670
C         35.47886        24.65796         1.66172
C         34.20430        25.36201         1.51728
C         35.44810        27.55968         1.17244
C         34.19089        26.72766         1.11000
C         35.54417        28.54694        -0.00008
C         34.22761        29.29679        -0.18572
C         35.56581        31.42122        -0.85206
C         34.22559        30.73550        -0.61459
C         35.47565        32.90263        -0.55999
C         34.22237        33.60161        -0.89649
C         35.56556        35.70169        -1.59255
C         34.22896        34.92601        -1.62746
C         35.59171        37.24169        -1.77885
C         34.24871        37.94111        -1.61004
C         35.45053        40.04381        -1.16048
C         34.22107        39.32260        -1.50643
C         35.43054        41.44288        -1.04104
C         34.23975        42.19300        -1.19020
C         34.23954        43.59191        -1.04980
C         36.69821        25.39580         1.52693
C         37.93874        27.48343         1.11978
C         36.72573        26.75475         1.26388
C         37.95866        28.81981         0.70374
C         36.74943        29.45696         0.21308
C         37.98849        31.55749        -0.10398
C         36.75607        30.78070        -0.15397
C         38.01722        32.89686        -0.45562
C         36.75414        33.64976        -0.53350
C         37.99556        35.82063        -0.65223
C         36.80261        35.03741        -1.07750
C         37.84363        37.24362        -0.55795
C         36.70667        37.91805        -0.99498
C         36.62111        39.32040        -0.85171
C         39.17542        29.57745         0.71906
C         40.41277        31.71044         0.44476
C         39.20724        30.90086         0.33073
C         40.45426        33.00384         0.05916
C         39.30192        33.66377        -0.65821
C         39.14900        35.14154        -0.35777
O         23.64222        31.14987        -1.05014
O         23.37914         6.72557         0.17493
O         20.83365        31.28454        -0.61070
O         30.30554        40.93846        -3.01875
O         26.82348        47.58401        -2.47582
O         22.65093        35.89043         2.05286
O         12.30845        26.84787         1.63563
O         22.85886        56.68461         2.65790
O         22.72783        45.17065         0.46048
O         12.18599        35.78846         2.29942
O         10.40866        34.72697        -1.64394
O         25.97232        41.26419         0.77733
O         25.22562        16.92280        -0.95111
O         15.65761        24.80267        -0.34146
O         36.51432        35.06881        -2.51685
O         14.60947        18.13724         0.65908
O         23.22773        53.18498         1.71345
O         26.47552        37.77743         1.02687
O         21.49648        53.36938        -1.46000
O         27.47887        29.51962         2.35831
O         16.28872        31.67388         0.02389
O         21.31410        50.83094        -2.02527
O         18.18472        23.57362         3.00464
O         31.58279        38.57491        -3.18500
O         18.35842        19.84917        -0.74155
O         17.07714        35.08053         2.66501
O         20.29931        45.30587        -2.42212
O         22.56805        13.86696         1.06903
O         17.39329        15.84534         1.18113
O         35.97678        33.41963         0.72481
O         34.02202        29.66290        -1.61262
O         23.04489        19.15379         2.76701
O         18.91136        29.25878         2.77168
O         31.12815        20.61083         3.51816
O         12.69061        24.41810         1.75566
H         13.27198        23.80153         2.26557
O         19.95215         5.58586        -2.19167
H         20.14921         5.80432        -3.12513
O         25.03512         8.28600        -2.63186
H         24.48925         8.97830        -3.06008
O         20.96245        58.60032         3.39238
H         21.69516        57.97909         3.61723
O         21.85074        22.36787         3.42938
H         21.04245        21.90204         3.73385
O         26.30377        42.04184        -2.80673
H         26.98814        42.37842        -3.42378
O         35.78327        27.76550        -1.18874
H         35.42413        28.27677        -1.94859
O         17.87998        35.72967        -0.88767
H         18.60220        36.14610        -1.40327
O         25.61449        22.89726        -0.37544
H         24.87350        23.40629        -0.76817
O         15.77162        37.75159         2.73327
H         16.08429        38.68166         2.89099
O         21.06957        40.52516         1.77528
H         21.88853        41.08914         1.85415
O         18.65091        33.17161         3.15539
H         18.45447        34.06486         3.52427
O         20.40960        24.44094        -0.33669
H         20.56294        25.34642        -0.68413
O         29.57197        31.40292         2.26243
H         28.85227        30.91728         2.73770
O         25.81623         7.51505         0.89466
H         24.95765         7.05194         1.05544
O         27.57941        54.84341         2.03724
H         26.87464        55.18416         2.62797
O         13.28743        41.16602         2.20781
H         12.99928        40.48812         2.85667
O          9.96950        31.72027         1.84595
H         10.64036        31.93563         2.52904
O         24.76309        46.58676         0.92081
H         24.18027        45.88329         1.30267
O         25.14117        35.25611         1.92550
H         24.41687        35.36506         2.58591
O         35.84756        31.36101        -2.27818
H         35.36078        30.57997        -2.63169
O         15.75375        39.91891        -1.20652
H         14.83045        40.04984        -1.54837
O         35.34699        28.38352         2.36835
H         35.29275        27.78802         3.14498
O         33.23817        36.75230        -3.37932
H         32.78509        37.45816        -3.90350
O         19.39520        42.06112        -2.28110
H         18.46395        42.24241        -2.57146
O         15.99698        42.22288         1.68680
H         15.21069        41.93778         2.20928
O         11.22119        38.34654         2.55078
H         11.30251        37.42945         2.90415
O         33.08398        23.49530         3.74693
H         32.89559        22.62962         4.17035
O         19.48941        38.44541         2.34163
H         20.24706        39.06447         2.51055
O         14.93389        22.85755         2.67675
H         15.50229        23.37885         3.29524
O         24.01302        26.99333         3.00297
H         24.72100        26.57958         3.53965
O         25.80763        12.33325        -2.28758
H         26.66797        12.14638        -2.71769
O         24.74156        12.12613         1.20963
H         23.94448        12.50503         1.64987
O         28.11621        54.97249        -1.57892
H         27.33460        54.52760        -1.96682
O         13.23785        41.08003        -1.46206
H         13.12791        41.78271        -2.13757
O         27.86780        18.59965         3.36835
H         27.94980        17.63937         3.54849
O         26.72431        22.80283         3.12441
H         27.34957        22.23210         3.61926
O         22.29589        46.85628        -2.74717
H         21.69849        46.22826        -3.22211
O         23.36282        26.91072        -0.59351
H         22.85418        27.51490        -1.17490
O         14.90481        27.36540         2.91789
H         15.11502        26.48847         3.31822
O         30.19275        28.50303        -1.22779
H         30.99023        28.07853        -1.61156
O         16.66564        42.23178        -1.94751
H         16.45094        41.26634        -2.05956
O         33.40650        36.26280         0.20040
H         33.33225        35.50041         0.81395
O         21.47956        39.46849        -1.71714
H         22.20957        39.03347        -2.20590
O         39.62192        33.58614        -2.09382
H         39.58124        32.64205        -2.35581
O         29.59715        34.14652         1.62098
H         29.61618        33.27352         2.09267
O         34.00732        34.49717        -2.98815
H         34.89540        34.29488        -3.36411
O         16.28501        25.11340         3.29468
H         17.06170        25.15977         3.89520
O         13.02817        25.63981        -1.67538
H         12.42483        26.08083        -2.30924
O         25.03954        35.76907        -1.70036
H         25.12268        34.81405        -1.96638
O         22.45453        13.14397        -2.49808
H         22.75159        12.38383        -3.04059
O         22.11108        43.36532        -2.70241
H         21.31168        42.87259        -3.00080
O         20.89039        16.62208        -1.73027
H         20.84969        17.60320        -1.71999
O         35.90904        37.48327        -3.17822
H         35.17099        37.08000        -3.69617
O         15.09974        27.29849        -0.72908
H         15.46681        26.51982        -1.20629
O         17.27845        48.12034         1.77219
H         17.23495        49.04469         2.09883
O         23.28042        42.00978         1.39685
H         24.19878        41.73590         1.64521
O         17.05555        40.03336         2.25839
H         17.92100        39.66494         2.57258
O         11.64698        37.66410        -1.03049
H         11.18384        37.10523        -1.69132
O         15.45124        33.01874         3.34536
H         15.70066        33.86594         3.77821
O         25.38692        33.01940        -1.73011
H         24.66671        32.35325        -1.89646
O         28.23343        22.86947        -0.26632
H         27.34819        23.01006        -0.68344
O         29.59804         9.87606        -0.32990
H         29.37869         9.70568         0.60912
O         25.74746        49.91869         1.33442
H         25.66701        50.79021         1.77984
H          5.52327        31.37187        -2.50536
H          5.50246        33.83643        -2.33758
H          7.88347        27.06938        -1.89193
H          6.69713        29.19859        -2.16886
H          6.54010        35.93178        -1.60186
H          7.52904        38.06464        -0.69522
H         10.27954        22.76683        -1.52017
H          9.01493        24.93595        -1.56496
H          8.63111        40.21405        -0.16290
H          9.80390        42.37962         0.01904
H         12.83287        18.83813        -2.09598
H         11.58578        20.73166        -1.69222
H         11.09578        44.55507        -0.11297
H         12.39644        46.66473        -0.12123
H         15.11088        14.19361        -1.66190
H         14.20406        16.39955        -2.19257
H         13.64295        48.75538        -0.02765
H         14.89440        50.88302         0.17155
H         17.60029         9.89366        -1.74797
H         16.32098        12.03725        -1.63873
H         16.17211        52.97601         0.54168
H         17.42880        55.10403         0.74777
H         20.73377         5.84371        -0.31129
H         18.88082         7.75320        -1.74405
H         18.69343        57.22614         1.16278
H         20.01116        59.27223         1.68056
H         23.76800         2.69970        -3.05615
H         21.54337         3.78926        -2.73914
H         23.26860        62.56144         0.76114
H         21.21505        61.33436         1.46326
H         25.85248         3.75112        -2.26258
H         26.99952         5.74143        -1.33417
H         26.66123        59.23259         0.33528
H         25.39034        61.32604         0.33806
H         28.22286         7.90045        -0.69799
H         28.74625        10.66781        -2.02051
H         29.25860        54.90131         0.13615
H         27.95161        57.14619         0.27345
H         30.53562        12.14052        -0.01812
H         31.68957        14.22182         0.68624
H         31.64584        50.61891        -0.61019
H         30.44062        52.81882        -0.42103
H         32.85769        16.34458         1.25877
H         34.01487        18.46835         1.58679
H         34.00340        46.28443        -0.84793
H         32.81861        48.44349        -0.76134
H         35.22043        20.60236         1.68483
H         36.44386        22.73140         1.73155
H         36.36501        41.97072        -0.79792
H         35.19544        44.10726        -0.87208
H         37.64920        24.84509         1.59992
H         38.89086        26.98313         1.35612
H         38.67378        37.83037        -0.13381
H         37.48118        39.86480        -0.43156
H         40.09341        29.09346         1.08571
H         41.30094        31.23950         0.89390
H         41.38707        33.57893         0.16182
H         40.04250        35.69921        -0.03622
