         266
 CSIRO Nanostructure Databank - Neutral Graphene Oxide Data Set
C        -11.23278         0.68909         0.76417
C         -9.95981         1.44062         1.10087
C         -8.78177         0.70255         0.49430
C         -7.43121         1.40974         0.48793
C         -6.32982         0.59933        -0.20984
C         -5.05610         1.36046        -0.43340
C         -3.79927         0.55634        -0.43623
C         -2.47283         1.25163        -0.59325
C         -1.19386         0.56499        -0.14310
C         -0.10770         1.38230         0.51020
C          1.13435         0.69393         1.05062
C          2.44194         1.44873         1.18052
C          3.74877         0.64514         1.14489
C          5.02139         1.39034         0.81476
C          6.31101         0.66340         0.58080
C          7.42897         1.19384        -0.37951
C          8.74813         0.63940         0.19443
C          9.98796         1.36186        -0.36359
C         11.22112         0.58658         0.06304
C         -9.91194         2.91389         0.76406
C         -8.80234         3.53710         0.26691
C         -7.60413         2.76012        -0.17976
C         -6.38785         3.44082        -0.74229
C         -5.06838         2.71125        -0.67159
C         -3.79750         3.45757        -0.97251
C         -2.46904         2.74562        -0.84967
C         -1.11248         3.46911        -0.72880
C         -0.15871         2.88477         0.32653
C          1.09857         3.64898         0.62170
C          2.41336         2.92836         0.87627
C          3.58354         3.45686         0.07796
C          4.87474         2.67641         0.06666
C          6.12061         3.34708        -0.39090
C          7.48584         2.73559        -0.55576
C          8.67346         3.44388         0.05141
C          9.87919         2.80620         0.10794
C         -8.70571         4.98142         0.21691
C         -7.58809         5.65295        -0.20285
C         -6.48270         4.96048        -1.00102
C         -5.12488         5.68149        -0.90760
C         -3.81332         4.96113        -0.92430
C         -2.55089         5.71656        -0.61873
C         -1.22701         5.01788        -0.63557
C         -0.03575         5.81664        -0.17934
C          1.21037         5.15876         0.41900
C          2.41890         5.68309        -0.32901
C          3.61161         4.80323        -0.57317
C          4.90858         5.54423        -1.02559
C          6.27045         4.74449        -0.92857
C          7.40354         5.54652        -0.26341
C          8.51946         4.88531         0.17871
C         -7.55188         7.09927        -0.11308
C         -6.38043         7.80254        -0.17807
C         -5.08446         7.02378        -0.12310
C         -3.86955         7.80286        -0.67079
C         -2.58381         7.08254        -0.60691
C         -1.28013         7.87054        -0.78959
C         -0.25832         7.28382         0.27962
C          0.98918         8.23525         0.45011
C          2.50938         7.14431        -0.28296
C          3.48666         8.12269         0.00582
C          5.10579         6.66459         0.02186
C          6.17681         7.68002        -0.32069
C          7.37130         7.00854        -0.34491
C         -6.32125         9.23876         0.00857
C         -5.16231         9.94082        -0.06466
C         -3.89669         9.32011        -0.50696
C         -2.62246         9.99663        -0.31371
C         -1.37769         9.41753        -0.53103
C         -0.16883        10.12944        -0.59736
C          1.10299         9.46856        -0.45734
C          2.29257        10.04825        -0.84943
C          3.59685         9.25284        -0.96588
C          4.95676         9.88633        -0.73072
C          6.06123         9.13066        -0.48883
C        -11.27369        -0.65354         0.71531
C        -10.06747        -1.52843         1.01171
C         -8.79944        -0.77246         0.58908
C         -7.45306        -1.43840         0.86370
C         -6.36314        -0.91075        -0.13008
C         -5.04260        -1.64143        -0.22548
C         -3.83808        -0.82308         0.18883
C         -2.56369        -1.55073         0.45621
C         -1.24380        -0.88647         0.21112
C         -0.06308        -1.53553         0.87823
C          1.21943        -0.77320         0.70799
C          2.49698        -1.53012         0.63411
C          3.78156        -0.84994         0.98769
C          5.04623        -1.59289         0.69623
C          6.38271        -0.85997         0.86163
C          7.47847        -1.52190         0.02291
C          8.77389        -0.84316        -0.00838
C          9.98495        -1.56363        -0.01162
C         11.21167        -0.76006         0.15553
C        -10.00835        -2.84277         0.23020
C         -8.85347        -3.54518         0.27133
C         -7.77430        -2.93657         1.12935
C         -6.11891        -4.00946        -0.41134
C         -4.94276        -3.14431        -0.26285
C         -3.89333        -3.71309         0.70774
C         -2.54654        -3.06233         0.42620
C         -1.26146        -3.80452         0.61914
C         -0.04449        -3.02363         1.01016
C          1.26173        -3.77577         1.07990
C          2.47442        -3.03763         0.59473
C          3.77205        -3.75893         0.51991
C          5.03679        -2.94905         0.59323
C          6.33866        -3.74016         0.51155
C          7.46086        -2.99401        -0.16847
C          8.76135        -3.78603        -0.43904
C          9.99283        -2.96135        -0.09101
C         -8.30010        -4.57103        -0.71051
C         -7.58520        -5.81073        -0.01925
C         -6.21975        -5.22621         0.20084
C         -5.05796        -6.00245         0.53451
C         -3.82896        -5.23922         0.85379
C         -2.53083        -5.98695         0.91048
C         -1.22510        -5.27980         0.81685
C         -0.04895        -5.96615         0.88409
C          1.26250        -5.28108         1.05523
C          2.51970        -6.02746         0.73514
C          3.79179        -5.25038         0.79741
C          5.07721        -5.94345         0.40163
C          5.97039        -4.97547        -0.31299
C          7.98697        -6.18700        -0.17900
C          8.68315        -5.14226         0.27688
C         -7.36802        -7.10913        -0.76611
C         -6.21575        -7.83500        -0.57396
C         -5.08990        -7.35396         0.24458
C         -3.86633        -8.18116         0.40462
C         -2.56608        -7.46957         0.67113
C         -1.29455        -7.97685        -0.02030
C         -0.04790        -7.44629         0.71671
C          1.24879        -8.15664         0.46101
C          2.51948        -7.36906         0.45380
C          3.76939        -8.11335         0.10414
C          5.09055        -7.39696         0.06679
C          6.18735        -7.92279        -0.87666
C          7.60133        -7.36608        -0.64848
C         -5.96512        -9.04291        -1.36374
C         -4.85538        -9.79851        -1.24948
C         -3.85562        -9.61317        -0.13242
C         -2.46398       -10.13557        -0.45358
C         -1.29625        -9.46966        -0.26328
C          0.00542       -10.09542        -0.47337
C          1.19427        -9.49541        -0.19551
C          2.49597       -10.25878        -0.33959
C          3.65231        -9.35272        -0.79412
C          4.97947       -10.08868        -0.80210
C          6.14917        -9.43613        -0.83409
O          1.87914        -0.97376        -0.57627
O         -1.28052        -7.33250        -1.26547
O         -7.03216         1.68091         1.85128
H         -6.85709         0.80765         2.28900
O         -4.40796         5.58664        -2.13651
O          7.04058        -2.14079        -1.25452
O         -1.80620        -3.52689        -0.73054
O          1.41264        -4.51623         2.31947
O         -0.23995         5.60720        -1.57437
O         -7.18927        -3.72461        -1.22626
O         -4.64843        -2.35849        -1.44302
O          0.05050         1.02365         1.93041
O         -8.26662        -6.08592         1.21787
H         -8.01128        -5.39357         1.87035
O         -4.04040         8.61044        -1.82167
O          6.83250         4.37746        -2.25286
O          3.60564         8.71231        -2.30519
H          3.50992         9.44618        -2.94576
O          5.28446         2.53086        -1.31801
O         -9.03236        -0.10385        -0.68243
O          2.17251         6.56858        -1.49617
O          0.01737         3.51271         1.61472
O          8.72908         0.88877         1.62380
H          9.47612         0.40283         2.03208
O          4.74543        -8.24728         1.19009
O          3.83323        -0.22294         2.31351
O         -0.27607        -2.14396         2.17027
O         -0.41712         3.14995        -1.94707
H         -1.03422         3.30690        -2.69773
O         -3.08678         0.54406        -1.70435
O          7.22111         0.60389        -1.66075
H          6.53031         1.12974        -2.12815
O          4.92129         6.32190         1.20756
O          3.16206         3.65022        -1.32555
O          4.77737        -5.64148         1.79768
O          3.67607         8.49144         1.28007
H          3.53707         7.73258         1.88976
O         -0.87340         7.23447         1.54790
H         -0.24465         7.69359         2.16984
O         -7.31458        -3.47034         2.12540
O          9.99840         1.34886        -1.80433
H          9.16235         1.74339        -2.14015
O         -3.06406         3.00305        -2.15582
O          0.55580        -8.19289         1.78903
O         -6.97970        -0.97436         2.15651
H         -6.77369        -1.78785         2.68853
O         -3.20160        -8.19434         1.73714
O          2.57607         2.46532         2.22921
O         -3.32884        -0.92576         1.54325
O        -10.00900        -1.80055         2.42341
H        -10.07606        -0.93731         2.89030
O          6.08695         1.42734         1.80412
O         -7.35403         2.73258        -1.60866
H         -7.37807         4.32207        -2.64075
O         -0.81748         7.68286        -2.03966
O          7.63870         3.10162        -2.01806
O         -3.22913        -5.59048         2.14820
O         -6.75146        -0.23544        -1.33432
O          5.80827        -7.54337        -2.22751
H          5.91433        -6.55834        -2.30874
O          6.03197        -4.95287        -1.54219
O         -6.90454         5.14262        -2.36790
O          2.98077        -3.51288        -0.69466
O          6.78208        -1.03752         2.22940
H          6.37693        -0.30385         2.74892
O          3.34811        -8.89876        -2.12687
H          4.15145        -8.43875        -2.47875
O          6.82139        -4.04992         1.82440
H          6.12736        -4.56402         2.30551
O          8.86105        -4.00984        -1.85656
H          8.34567        -3.29941        -2.30384
O         -4.83992         6.65180         1.18576
O         -0.83244        -0.45649        -1.11835
O          1.28541         8.46869         1.65815
O         -4.33494       -10.46210         0.95130
H         -3.90636       -10.13183         1.77309
O         -9.78618         1.34169         2.55259
H         -8.91646         1.75867         2.75994
O          4.74261         6.07756        -2.32136
H          4.51413         5.35073        -2.93753
O          1.40804         5.67569         1.75408
H          0.76590         5.22941         2.35197
O         -4.36280        -3.23660         1.99029
H         -3.97903        -3.82475         2.68186
O          2.83192       -10.85277         0.92224
H          2.89451       -10.14469         1.59733
H         12.14394        -1.30182         0.37654
H         12.16875         1.13408         0.18295
H         10.78355         3.36478         0.39613
H          9.36843         5.46243         0.57546
H          8.32782         7.54934        -0.43430
H          7.02945         9.65860        -0.44597
H          5.08046        10.97228        -0.86373
H          2.25937        11.03195        -1.34935
H         -0.18706        11.18621        -0.91151
H         -2.65316        10.97473         0.19581
H         -5.15133        11.01841         0.15638
H         -7.25650         9.76320         0.25883
H         -8.50411         7.62895         0.05451
H         -9.54088         5.55665         0.64693
H        -10.75874         3.53410         1.09917
H        -12.14640         1.27230         0.57136
H        -12.22579        -1.15912         0.48889
H        -10.84778        -3.14440        -0.41570
H         -8.99620        -4.80015        -1.54639
H         -8.14606        -7.49616        -1.44242
H         -6.70957        -9.29015        -2.13699
H         -4.72375       -10.67264        -1.90484
H         -2.42281       -11.20678        -0.71252
H          0.01150       -11.12188        -0.87457
H          2.36791       -11.09199        -1.07247
H          4.95851       -11.18883        -0.79520
H          7.10077        -9.98825        -0.86377
H          8.38916        -7.98046        -1.12754
H          9.05974        -5.17382         1.31568
H         10.96417        -3.47962        -0.11359
