         420
 CSIRO Nanostructure Databank - Neutral Graphene Oxide Data Set
C         27.90339        27.43264        -0.23328
C         27.88750        28.82558        -0.29933
C         26.65213        29.58069        -0.18120
C         27.85023        31.68229        -0.77080
C         26.62575        30.92350        -0.31596
C         27.86295        33.14026        -0.36308
C         26.68748        33.90547        -0.46699
C         27.80888        35.95168         0.25673
C         26.66911        35.27950        -0.21372
C         27.84683        37.37244         0.47368
C         26.64337        38.11906         0.57629
C         27.86027        40.23806         0.58475
C         26.64881        39.49426         0.65842
C         27.86082        41.68281         0.63756
C         26.66417        42.43521         0.77158
C         27.91682        44.52193         0.85046
C         26.68437        43.81442         0.84143
C         27.94560        45.96529         0.94962
C         30.35039        27.38350        -0.28284
C         29.11369        26.72419        -0.24225
C         30.36713        28.81592        -0.34428
C         29.12845        29.53941        -0.37869
C         30.33691        31.66137        -0.28015
C         29.12502        30.95291        -0.41522
C         30.32694        33.08223        -0.06258
C         29.06902        33.76190         0.01586
C         30.38317        35.93916         0.53319
C         29.01739        35.15586         0.46399
C         30.33178        37.39228         0.38135
C         29.09451        38.08773         0.47786
C         30.31948        40.24565         0.28762
C         29.08490        39.52480         0.47060
C         30.31076        41.66541         0.30953
C         29.10347        42.38844         0.56301
C         30.41995        44.52844         0.99566
C         29.11801        43.80831         0.73101
C         30.39100        46.03228         0.81054
C         29.11486        46.67797         0.89073
C         32.86013        24.56771        -0.12243
C         31.65386        25.25764        -0.15170
C         32.84984        27.37145        -0.32088
C         31.61558        26.66059        -0.24959
C         32.84905        28.80238        -0.42335
C         31.59186        29.52565        -0.40357
C         32.79582        31.68699        -0.41430
C         31.58109        30.95136        -0.35195
C         32.79995        33.07966        -0.24022
C         31.56567        33.79007         0.00829
C         32.80017        35.93624         0.00293
C         31.59514        35.20383         0.15998
C         32.78917        37.35852         0.03554
C         31.55014        38.09340         0.15647
C         32.79488        40.20948        -0.17747
C         31.52830        39.51051         0.07699
C         32.82361        41.73678        -0.21991
C         31.51713        42.44356        -0.04566
C         32.87175        44.60457         0.37619
C         31.57022        43.91526         0.23931
C         32.87950        45.99494         0.61900
C         31.61119        46.71688         0.71466
C         32.87565        48.81892         0.71394
C         31.68350        48.15324         0.70794
C         35.37252        23.10505        -0.09380
C         35.35387        24.51176        -0.15560
C         34.09384        25.23787        -0.20058
C         35.33221        27.37040        -0.41329
C         34.09547        26.66237        -0.30896
C         35.30674        28.79235        -0.54695
C         34.06145        29.49463        -0.53912
C         35.31431        31.68260        -0.59765
C         34.02925        30.96510        -0.89083
C         35.29172        33.09941        -0.40435
C         34.04449        33.81194        -0.26462
C         35.28326        35.94668        -0.09294
C         34.04695        35.21791        -0.13069
C         35.29292        37.36317        -0.01070
C         34.03478        38.07537         0.01055
C         35.28145        40.19467         0.29710
C         34.03848        39.46761         0.03889
C         35.28953        41.71456         0.33883
C         34.05517        42.46298         0.09334
C         35.34196        44.55144         0.39055
C         34.08071        43.86303         0.27198
C         35.35813        45.95910         0.57608
C         34.11994        46.69026         0.68290
C         35.35956        48.82188         0.87849
C         34.14063        48.12872         0.75770
C         35.45581        50.24890         0.78576
C         37.79737        23.08062         0.03097
C         36.56962        22.40613        -0.00818
C         37.82275        24.49930        -0.07532
C         36.59090        25.21739        -0.17560
C         37.81362        27.33365        -0.46394
C         36.59312        26.65303        -0.34779
C         37.81501        28.77040        -0.94542
C         36.52585        29.52689        -0.69634
C         37.78878        31.68527        -0.80535
C         36.51575        30.94048        -0.71047
C         37.78254        33.15472        -0.53924
C         36.49853        33.83076        -0.29291
C         37.76920        35.94809        -0.11287
C         36.51759        35.23301        -0.14040
C         37.76911        37.36757        -0.08297
C         36.52728        38.07931        -0.02654
C         37.76151        40.22787         0.06014
C         36.55749        39.49939         0.08894
C         37.77195        41.67500         0.13467
C         36.57578        42.41175         0.21540
C         37.81547        44.53771         0.30568
C         36.57607        43.83660         0.28200
C         37.83502        45.95416         0.51690
C         36.60910        46.63372         0.67658
C         37.93269        48.77005         1.22133
C         36.61015        48.05230         1.07540
C         37.90471        50.27658         1.25133
C         36.62974        50.93122         0.90427
C         40.33471        20.24281        -0.07123
C         39.13749        20.87804        -0.01855
C         40.36023        23.10011         0.24558
C         39.04989        22.32070         0.26500
C         40.32152        24.54286        -0.05078
C         39.08015        25.21698        -0.13167
C         40.31057        27.32497        -0.36135
C         39.06667        26.63744        -0.33169
C         40.31853        28.79273        -0.28820
C         39.03090        29.52941        -0.45183
C         40.26692        31.67396        -0.68324
C         39.08017        30.98991        -0.67235
C         40.30008        33.10827        -0.43589
C         39.02489        33.75474         0.07376
C         40.21324        35.94918         0.02050
C         39.01310        35.25706        -0.06178
C         40.23179        37.37207        -0.02197
C         39.00063        38.08550        -0.06746
C         40.23098        40.22037        -0.11898
C         39.00750        39.51938        -0.04848
C         40.24008        41.66585        -0.09570
C         39.01700        42.38194         0.07064
C         40.27078        44.51139         0.09568
C         39.03450        43.80578         0.16034
C         40.29153        45.94411         0.22963
C         39.09947        46.66476         0.51446
C         40.37529        48.78009         0.61691
C         39.17182        48.07355         0.77487
C         40.53782        50.20965         1.17525
C         39.22649        51.02757         1.18946
C         40.31850        53.04111         0.18509
C         39.22082        52.42476         0.73313
C         42.82171        20.25890        -0.16701
C         41.59381        20.95648        -0.03595
C         42.82644        23.08111        -0.15414
C         41.61024        22.36397        -0.00142
C         42.81080        24.52061        -0.20380
C         41.55838        25.22379        -0.20840
C         42.79635        27.37252        -0.35010
C         41.55268        26.64984        -0.31931
C         42.78662        28.81608        -0.46486
C         41.58738        29.50932        -0.47109
C         42.82060        31.68578        -0.84601
C         41.53031        30.90403        -1.04186
C         42.77846        33.16556        -0.57774
C         41.47059        33.80311        -0.32255
C         42.73795        35.94419         0.09221
C         41.46830        35.17032         0.32269
C         42.71654        37.35396         0.03666
C         41.47259        38.07893        -0.01246
C         42.70659        40.19038        -0.23801
C         41.47320        39.49474        -0.13027
C         42.69303        41.63840        -0.64730
C         41.45000        42.37724        -0.22711
C         42.72860        44.50043        -0.22102
C         41.47669        43.78753        -0.11923
C         42.73602        45.92852        -0.19002
C         41.52187        46.64816         0.07013
C         42.77767        48.74407        -0.08021
C         41.55407        48.06814         0.21377
C         42.85949        50.21957        -0.04510
C         41.69983        50.98519         0.52282
C         42.69123        53.02141        -0.52999
C         41.54919        52.36611         0.03407
C         44.01651        20.94460        -0.24626
C         45.29456        23.09904        -0.31947
C         44.05430        22.36548        -0.24686
C         45.27878        24.52350        -0.32754
C         44.03221        25.23671        -0.29925
C         45.27605        27.38764        -0.44571
C         44.02688        26.67357        -0.35805
C         45.28134        28.83830        -0.43857
C         44.04797        29.54275        -0.49111
C         45.24633        31.68452        -0.24912
C         44.05963        30.95664        -0.50874
C         45.22148        33.12111        -0.07684
C         44.00812        33.82833        -0.10450
C         45.20367        35.96006         0.16207
C         43.97180        35.24431         0.07944
C         45.18418        37.38199         0.11735
C         43.94952        38.07488         0.00318
C         45.17367        40.22085        -0.18349
C         43.93323        39.50032        -0.14643
C         45.15805        41.64341        -0.20975
C         43.96745        42.35924        -0.30238
C         45.19583        44.50599        -0.31759
C         43.95233        43.78963        -0.27459
C         45.19885        45.91550        -0.50325
C         43.95283        46.62867        -0.41300
C         45.13809        48.78386        -0.82946
C         43.93735        48.05386        -0.45310
C         45.11447        50.13247        -1.09008
C         43.76910        50.84637        -1.09031
C         43.79541        52.34642        -0.96318
C         47.73523        23.12597        -0.42009
C         46.54755        22.43044        -0.37520
C         47.76283        24.54743        -0.42132
C         46.51072        25.24913        -0.38806
C         47.76612        27.38775        -0.62882
C         46.48687        26.67208        -0.47161
C         47.78086        28.91218        -0.51454
C         46.48613        29.58032        -0.33810
C         47.71754        31.68791         0.11259
C         46.48348        30.98061        -0.14206
C         47.68631        33.10471         0.27126
C         46.45084        33.82261         0.17076
C         47.66473        35.96500         0.39935
C         46.43748        35.24341         0.24808
C         47.65103        37.41213         0.28897
C         46.42161        38.10585         0.11047
C         47.65878        40.19942        -0.26749
C         46.42206        39.51668        -0.07961
C         47.61792        41.65212        -0.70301
C         46.46917        42.34364         0.04352
C         47.64042        44.50288        -0.33635
C         46.42787        43.81641        -0.25428
C         47.65704        45.90936        -0.60949
C         46.42849        46.59305        -0.70962
C         47.65805        48.79477        -0.89408
C         46.37896        48.00644        -1.23701
C         47.53783        50.18276        -1.49236
C         46.33218        50.79169        -1.54811
C         50.28204        24.59075        -0.51603
C         49.00397        25.25931        -0.37840
C         50.20303        27.40996        -0.10032
C         49.01766        26.68048        -0.32506
C         50.20678        28.82993        -0.01328
C         49.02021        29.58621        -0.09546
C         50.14762        31.71318         0.57470
C         48.96672        30.99393         0.20710
C         50.13469        33.11513         0.72795
C         48.89730        33.82368         0.52177
C         50.10267        35.97431         0.87338
C         48.86422        35.24209         0.56804
C         50.08959        37.47703         0.67217
C         48.85915        38.14439         0.22718
C         50.12343        40.10191        -0.77400
C         48.87093        39.52110        -0.13485
C         50.18619        41.68734        -0.88811
C         48.91281        42.39376        -0.46432
C         50.13262        44.53605         0.00354
C         48.89035        43.74720        -0.29952
C         50.12853        45.95394        -0.52949
C         48.93072        46.59991        -0.77659
C         50.19268        48.75528        -0.96518
C         48.92641        48.02229        -1.31634
C         51.44113        25.25163        -0.29533
C         52.72302        27.36962         0.32639
C         51.41362        26.61289         0.34716
C         52.71827        28.75445         0.49674
C         51.48814        29.53689         0.22158
C         52.61099        31.60239         1.32294
C         51.45346        31.00043         0.57033
C         52.59026        33.12395         1.42467
C         51.36691        33.85315         0.97106
C         52.63770        35.98510         0.95599
C         51.38887        35.24155         0.93093
C         52.66418        37.46307         0.78921
C         51.38861        38.21091         0.54052
C         52.71863        40.22577        -0.22754
C         51.43372        39.46280        -0.29070
C         52.67433        41.70090        -0.28848
C         51.43860        42.37610        -0.35108
C         52.60907        44.53177        -0.22027
C         51.40892        43.78832        -0.28585
C         52.63065        45.96304        -0.52395
C         51.40095        46.64819        -0.62161
C         51.35020        48.09479        -0.75091
C         55.13322        27.31687         0.61795
C         53.94967        26.65957         0.37005
C         55.12686        28.69316         0.96798
C         53.91112        29.44296         0.88613
C         54.98980        31.21981         2.10865
C         53.87000        30.78878         1.39140
C         54.92231        33.55252         2.30839
C         53.83941        33.93648         1.54099
C         55.19194        35.97406         0.85848
C         53.83850        35.31746         1.08748
C         55.14688        37.46480         0.60500
C         53.95788        38.12756         0.49378
C         55.24797        40.36168         0.30155
C         53.92757        39.60700         0.41931
C         55.19197        41.77120        -0.18697
C         53.88286        42.41315        -0.07664
C         55.47126        44.74558        -0.82119
C         53.79072        43.80990         0.03414
C         55.04225        46.01354        -1.36339
C         53.82490        46.58428        -1.07185
C         56.30031        29.28203         1.50848
C         56.21571        30.51261         2.11931
C         56.01625        34.44971         2.62347
C         56.14325        35.63171         1.98479
C         56.39187        38.17389         0.38860
C         56.44946        39.51964         0.20031
C         56.25054        42.39907        -0.81759
C         56.23699        43.73303        -1.36285
O         39.71180        22.72471         1.51348
O         54.50172        40.25615         1.57613
O         52.37867        39.43194        -1.41619
O         54.92932        44.50016         0.46486
O         52.25561        32.25233         2.57418
O         52.02138        38.28888         1.85092
O         37.27451        48.21527         2.40278
O         51.79764        30.58101        -0.79530
O         38.51068        50.85427         2.46435
O         35.20536        40.91499         1.60030
O         49.92772        36.89700         2.00736
O         29.71052        35.42172         1.71825
O         32.86785        40.95914        -1.46897
O         37.87049        32.67777        -1.91259
O         54.96553        32.33270         2.96902
O         47.86428        28.23343        -1.82142
O         39.48023        29.23227         0.90484
O         42.96590        50.81044         1.27122
O         31.25695        43.45271        -1.10482
O         42.98631        32.64328        -1.95377
O         38.95506        33.45893         1.49866
H         39.76737        33.84838         1.90826
O         33.91423        30.99386        -2.37646
H         34.79908        30.77334        -2.73990
O         47.37355        41.67649        -2.13857
H         48.23063        41.89408        -2.57723
O         30.72759        44.29433         2.41317
H         30.02118        44.71817         2.94496
O         47.75478        48.93609         0.54104
H         46.96996        49.43523         0.85190
O         51.19053        26.36679         1.79060
H         50.40713        25.78083         1.86680
O         49.98702        39.58407        -2.13424
H         49.08339        39.80489        -2.44896
O         46.78426        42.18729         1.45733
H         46.13394        42.70570         1.97505
O         50.12918        44.67210         1.46914
H         50.87337        45.26196         1.71516
O         42.64306        41.62286        -2.13197
H         43.48444        41.22584        -2.44467
O         50.23906        41.98127        -2.32683
H         50.80105        41.28179        -2.73718
O         37.98337        28.70817        -2.40275
H         37.22280        28.21245        -2.77257
O         41.41608        30.66409        -2.48213
H         41.78704        31.46367        -2.92466
O         40.91825        49.99944         2.54930
H         40.08643        49.98027         3.07875
O         46.24934        47.88787        -2.68276
H         47.14539        47.68632        -3.04728
O         43.15692        50.54523        -2.38780
H         43.85292        50.60949        -3.07519
O         41.41554        34.89186         1.78305
H         41.46799        35.75521         2.24733
O         48.91394        47.92100        -2.78150
H         49.70463        47.40597        -3.04901
O         27.79238        31.69113        -2.24381
H         27.84624        30.75809        -2.54175
O         55.75200        35.36889        -0.35315
H         55.82381        34.40336        -0.19882
H         26.95459        26.88169        -0.15990
H         25.73231        29.02731         0.06298
H         25.67400        31.46389        -0.20784
H         25.76505        33.42801        -0.82467
H         25.73939        35.83601        -0.39582
H         25.68198        37.58904         0.61862
H         25.68874        40.01646         0.76177
H         25.69394        41.92274         0.81283
H         25.74301        44.37579         0.92848
H         26.98579        46.49796         1.01599
H         29.07029        25.62813        -0.19244
H         29.06215        47.77601         0.88884
H         32.82474        23.47458        -0.03149
H         30.72287        24.67925        -0.08916
H         32.86170        49.91686         0.73350
H         30.75398        48.73875         0.71823
H         34.43673        22.53236        -0.09558
H         34.54429        50.82943         0.58722
H         36.53843        21.31130         0.07037
H         36.60772        52.02789         0.85244
H         40.36941        19.15620        -0.24083
H         38.21473        20.30555        -0.18903
H         40.24541        54.08927        -0.13985
H         38.30490        53.00881         0.89189
H         42.81435        19.15981        -0.19447
H         42.65408        54.11841        -0.62387
H         44.94827        20.36932        -0.32462
H         44.63765        52.91105        -1.38901
H         48.67689        22.56163        -0.44050
H         46.58471        21.33338        -0.36983
H         48.44203        50.72561        -1.80533
H         46.26248        51.82104        -1.93062
H         50.30884        23.55637        -0.88654
H         50.18656        49.85465        -0.98461
H         52.39561        24.73484        -0.46239
H         52.26800        48.67074        -0.56319
H         56.08120        26.76156         0.65668
H         53.96675        25.57265         0.21871
H         55.71861        46.55542        -2.04303
H         53.66500        47.58385        -1.50544
H         57.23479        28.70407         1.53219
H         57.07223        30.94253         2.65469
H         56.72666        34.13901         3.40217
H         56.97587        36.31233         2.21301
H         57.31472        37.57992         0.32031
H         57.40830        39.99120        -0.06032
H         57.13539        41.78725        -1.05765
H         56.83953        43.92751        -2.26273
