         600
 CSIRO Nanostructure Databank - Neutral Graphene Oxide Data Set
C         22.99556        27.46569         0.31513
C         22.98887        28.82468         0.10154
C         22.98677        31.71434        -0.37512
C         22.97980        33.07422        -0.55161
C         22.96541        35.99936        -0.72940
C         22.96579        37.36800        -0.77408
C         22.99261        40.30823        -0.59520
C         22.97935        41.65432        -0.70654
C         23.01795        44.61256        -1.11857
C         23.00945        45.98127        -0.94773
C         25.41591        24.68677         0.90175
C         24.23191        25.35847         0.72368
C         25.44866        27.43261         0.22490
C         24.22346        26.74954         0.40937
C         25.44067        28.84938        -0.02630
C         24.20124        29.55465        -0.05390
C         25.43347        31.68565        -0.32647
C         24.20796        30.98335        -0.25132
C         25.43479        33.11806        -0.50546
C         24.19140        33.82185        -0.61039
C         25.41463        35.95858        -0.78659
C         24.18436        35.24921        -0.71492
C         25.42299        37.38382        -0.85529
C         24.18638        38.11363        -0.82151
C         25.43672        40.23398        -0.94326
C         24.19594        39.52998        -0.83423
C         25.45200        41.65240        -0.97430
C         24.16903        42.38499        -1.27789
C         25.39879        44.49931        -0.59603
C         24.20567        43.85829        -0.94505
C         25.40423        45.92065        -0.39825
C         24.20317        46.66400        -0.59365
C         25.40565        48.72673        -0.13833
C         24.23269        48.07768        -0.44688
C         27.95218        23.27997         1.31092
C         27.91754        24.65769         0.95047
C         26.67223        25.34826         0.75585
C         27.92713        27.39682         0.19499
C         26.68961        26.72317         0.38318
C         27.92455        28.76291        -0.43997
C         26.66056        29.54645        -0.20898
C         27.92235        31.65359        -0.36560
C         26.68073        30.95766        -0.30027
C         27.93656        33.14603        -0.18379
C         26.65417        33.83091        -0.58260
C         27.88676        35.94554        -0.91254
C         26.65757        35.23595        -0.77028
C         27.89725        37.34910        -0.94568
C         26.66210        38.08315        -0.90372
C         27.90920        40.21353        -0.99087
C         26.67353        39.50714        -0.94608
C         27.90891        41.64184        -0.85120
C         26.66421        42.35184        -0.81913
C         27.85016        44.41333        -0.21181
C         26.66261        43.76671        -0.54777
C         27.80896        45.80585         0.36272
C         26.60091        46.60505        -0.04868
C         27.87246        48.69845         0.35812
C         26.61554        48.00227         0.07793
C         27.90236        50.09547         0.56526
C         30.38900        23.27664         1.28543
C         29.14247        22.61425         1.46833
C         30.39140        24.66532         0.97200
C         29.14883        25.35206         0.79348
C         30.40536        27.43916         0.28664
C         29.15036        26.73619         0.41697
C         30.40040        28.85322         0.01567
C         29.18599        29.54124        -0.18698
C         30.40179        31.67766        -0.37225
C         29.16328        30.95707        -0.30830
C         30.38477        33.09611        -0.66799
C         29.18643        33.78716        -0.71263
C         30.41363        35.94214        -1.06592
C         29.13202        35.17692        -1.28262
C         30.40231        37.34460        -1.03767
C         29.14310        38.07270        -1.02514
C         30.40162        40.20177        -1.18259
C         29.13058        39.47165        -1.05348
C         30.39702        41.71120        -0.96809
C         29.11544        42.37109        -0.68929
C         30.34686        44.42044        -0.03626
C         29.10661        43.72749        -0.29793
C         30.30835        45.81854         0.22971
C         29.10950        46.55706         0.22248
C         30.35293        48.70896         0.41043
C         29.10288        47.97844         0.35201
C         30.34620        50.13808         0.63615
C         29.09185        50.78664         0.73535
C         32.81065        20.41944         1.52349
C         31.65833        21.13242         1.48333
C         32.84225        23.29222         1.33696
C         31.63373        22.57689         1.42105
C         32.86019        24.67978         1.01498
C         31.63071        25.36563         0.82016
C         32.88116        27.46967         0.41066
C         31.63080        26.76599         0.50514
C         32.87662        28.87222         0.11462
C         31.64118        29.56676        -0.03501
C         32.86960        31.66936        -0.47762
C         31.62976        30.97441        -0.28885
C         32.84253        33.05410        -0.83949
C         31.64327        33.77403        -0.93225
C         32.85935        35.94259        -1.07176
C         31.64300        35.21967        -1.06694
C         32.87803        37.35559        -0.96734
C         31.64318        38.06711        -0.96549
C         32.87129        40.20475        -0.84513
C         31.66414        39.48487        -0.96806
C         32.86354        41.64018        -0.65271
C         31.64892        42.35960        -0.56668
C         32.85601        44.39155         0.02051
C         31.61433        43.72411        -0.15536
C         32.87986        45.79838         0.44319
C         31.55732        46.53741         0.54134
C         32.82860        48.68391         0.23963
C         31.56074        47.99918         0.40710
C         32.83845        50.23342         0.49365
C         31.56875        50.84354         0.87995
C         32.84145        52.76516         1.68750
C         31.63297        52.11667         1.49077
C         35.37349        18.96476         1.40169
C         35.36981        20.36709         1.43027
C         34.10644        21.08216         1.71609
C         35.37766        23.28496         1.26668
C         34.11355        22.60265         1.59631
C         35.34372        24.67801         1.07813
C         34.11566        25.38271         0.92668
C         35.35528        27.49393         0.46562
C         34.11182        26.78452         0.61916
C         35.35037        28.87787         0.12525
C         34.11036        29.58024        -0.02972
C         35.35986        31.67408        -0.47764
C         34.10534        30.97211        -0.34487
C         35.38338        33.05031        -0.80138
C         34.12030        33.71310        -1.14907
C         35.39064        35.95018        -1.02565
C         34.12899        35.23783        -1.26164
C         35.36883        37.36273        -0.91645
C         34.11962        38.07496        -0.91787
C         35.35135        40.20662        -0.70519
C         34.11382        39.49020        -0.81682
C         35.34408        41.62458        -0.54547
C         34.10143        42.32847        -0.46760
C         35.33782        44.44526        -0.11043
C         34.09008        43.72843        -0.19802
C         35.34580        45.86380         0.07862
C         34.12605        46.56942         0.27221
C         35.32962        48.71123         0.35190
C         34.11165        47.96814         0.33278
C         35.34222        50.12143         0.65153
C         34.11142        50.83899         0.88078
C         35.34305        52.88309         1.50940
C         34.09654        52.15414         1.39009
C         35.38446        54.24652         1.72780
C         37.76860        18.92256         0.99359
C         36.54538        18.25409         1.19251
C         37.78614        20.35145         0.99325
C         36.57591        21.08699         1.21579
C         37.81921        23.21250         0.89902
C         36.59167        22.53231         1.17060
C         37.86293        24.64424         0.85801
C         36.63285        25.43996         1.24493
C         37.80961        27.50183         0.48513
C         36.60321        26.83116         0.66335
C         37.82194        28.88418         0.13992
C         36.58878        29.57604        -0.01843
C         37.82440        31.68515        -0.40885
C         36.59229        30.97962        -0.29792
C         37.82912        33.09178        -0.64208
C         36.59745        33.78258        -0.83422
C         37.83606        35.94140        -0.87456
C         36.60193        35.22531        -0.94567
C         37.83447        37.36774        -0.84983
C         36.60001        38.07788        -0.82927
C         37.82267        40.21865        -0.65002
C         36.58955        39.50433        -0.73016
C         37.81621        41.63699        -0.51898
C         36.57542        42.33562        -0.44194
C         37.80658        44.47643        -0.23615
C         36.56790        43.75661        -0.26482
C         37.80622        45.89225        -0.09789
C         36.56961        46.58913         0.05437
C         37.79502        48.72212         0.23987
C         36.56080        48.00679         0.22716
C         37.79486        50.11790         0.51353
C         36.57649        50.77843         0.81355
C         37.83365        52.96023         0.98669
C         36.65307        52.13454         1.46104
C         37.78848        54.38815         1.21759
C         36.59461        54.97413         1.65081
C         40.18001        16.04860         0.63616
C         39.00588        16.75669         0.79072
C         40.21849        18.87772         0.63784
C         38.99608        18.17704         0.80291
C         40.23277        20.31285         0.61329
C         39.01867        21.04556         0.77145
C         40.25916        23.16509         0.49736
C         39.03132        22.47473         0.71606
C         40.28311        24.59608         0.44832
C         39.05999        25.31711         0.65044
C         40.32593        27.47353         0.27916
C         39.10373        26.81520         0.86722
C         40.30886        28.86182         0.01687
C         39.06370        29.58487        -0.01511
C         40.30088        31.68351        -0.40863
C         39.06321        30.97559        -0.27773
C         40.29991        33.10008        -0.57702
C         39.06916        33.81019        -0.68693
C         40.31385        35.94049        -0.87539
C         39.07424        35.22881        -0.81614
C         40.31281        37.38779        -0.87983
C         39.07198        38.08889        -0.80710
C         40.29424        40.23136        -0.62323
C         39.06496        39.51089        -0.70028
C         40.29062        41.65582        -0.51652
C         39.05279        42.35646        -0.45920
C         40.27980        44.49917        -0.33943
C         39.04720        43.77882        -0.34626
C         40.27286        45.92493        -0.25677
C         39.03824        46.61554        -0.11643
C         40.24068        48.77564        -0.06549
C         39.02920        48.03692         0.03074
C         40.19838        50.20157         0.04535
C         39.02122        50.85757         0.40354
C         40.21136        53.05207         0.33806
C         38.99253        52.31157         0.56572
C         40.14171        54.51859         0.41074
C         38.96424        55.18986         0.95977
C         40.25231        57.26025         1.28758
C         39.03310        56.56060         1.22745
C         42.63645        16.00146         0.34768
C         41.41536        16.72465         0.49113
C         42.68301        18.83556         0.34700
C         41.44026        18.14885         0.48829
C         42.69801        20.26900         0.32916
C         41.46680        21.00161         0.43923
C         42.70932        23.12144         0.19977
C         41.47725        22.42735         0.37598
C         42.72505        24.54635         0.09120
C         41.50583        25.28655         0.22094
C         42.71200        27.41059        -0.26454
C         41.51502        26.73260         0.10419
C         42.75062        28.81969        -0.36338
C         41.53125        29.55317        -0.24974
C         42.77229        31.68397        -0.47785
C         41.53254        30.97319        -0.38846
C         42.77973        33.09840        -0.57091
C         41.53609        33.81000        -0.65317
C         42.80534        35.90910        -1.04214
C         41.52560        35.21519        -0.83992
C         42.80632        37.43429        -1.04632
C         41.52389        38.12175        -0.84948
C         42.77798        40.24531        -0.58485
C         41.53329        39.52750        -0.67764
C         42.76929        41.66380        -0.48639
C         41.52663        42.37321        -0.47050
C         42.75524        44.52177        -0.39556
C         41.52085        43.79618        -0.40247
C         42.74353        45.95307        -0.39060
C         41.50277        46.65897        -0.31217
C         42.71143        48.81290        -0.38825
C         41.48074        48.08435        -0.26734
C         42.70385        50.25339        -0.31476
C         41.39125        50.98851        -0.42874
C         42.68339        53.11423         0.13581
C         41.42038        52.42031         0.05245
C         42.72389        54.49096         0.50510
C         41.49603        55.28795         0.47782
C         42.72612        57.19738         1.45273
C         41.47674        56.62222         1.07950
C         43.83104        16.66076         0.22127
C         45.13994        18.77954         0.09779
C         43.89771        18.09148         0.22216
C         45.15965        20.21428         0.08996
C         43.92697        20.95930         0.20253
C         45.16057        23.10303         0.05162
C         43.93616        22.39396         0.13034
C         45.18789        24.50821        -0.12703
C         43.95731        25.20780        -0.17679
C         45.24571        27.36755        -0.76889
C         43.91698        26.62559        -0.56209
C         45.24015        28.84034        -0.60013
C         44.00216        29.53337        -0.50077
C         45.24116        31.67515        -0.40423
C         44.00868        30.95869        -0.46029
C         45.25347        33.10283        -0.41377
C         44.02638        33.81401        -0.55191
C         45.26322        35.95335        -0.58497
C         44.05719        35.22264        -0.70180
C         45.26089        37.39920        -0.58188
C         44.05685        38.12677        -0.70468
C         45.24900        40.25505        -0.38242
C         44.02321        39.53918        -0.55155
C         45.23822        41.67995        -0.32764
C         44.00256        42.38785        -0.40010
C         45.23148        44.54082        -0.35628
C         43.99292        43.81694        -0.38473
C         45.23252        45.96686        -0.45294
C         43.97134        46.67905        -0.47990
C         45.16141        48.83652        -0.85049
C         43.92510        48.09595        -0.53628
C         45.14123        50.32933        -0.73035
C         43.88447        50.99364        -0.32707
C         45.16461        53.06203         0.24721
C         43.91053        52.40066        -0.02780
C         45.15911        54.38876         0.78907
C         43.92752        55.12063         0.89159
C         43.89585        56.48684         1.33784
C         47.58133        18.71571        -0.16089
C         46.39495        18.07658         0.02414
C         47.63087        20.17642        -0.28470
C         46.38456        20.89722         0.00857
C         47.72131        23.09970         0.17644
C         46.40906        22.34442         0.21926
C         47.70732        24.53482        -0.09488
C         46.46123        25.22867        -0.24056
C         47.74948        27.30780        -0.64487
C         46.47610        26.60376        -0.51109
C         47.73442        28.84773        -0.66308
C         46.45094        29.54986        -0.51314
C         47.71399        31.67775        -0.25287
C         46.47493        30.96427        -0.35977
C         47.71941        33.09912        -0.23766
C         46.48619        33.81829        -0.34769
C         47.72126        35.96099        -0.24813
C         46.49188        35.24509        -0.38619
C         47.71539        37.39240        -0.22255
C         46.48837        38.10870        -0.35931
C         47.70223        40.24726        -0.07911
C         46.47889        39.53419        -0.29232
C         47.68836        41.68839        -0.04771
C         46.47302        42.39875        -0.20165
C         47.69601        44.55748        -0.18458
C         46.46599        43.83650        -0.24607
C         47.70503        45.98431        -0.29471
C         46.47292        46.66074        -0.45375
C         47.72507        48.88368        -0.50748
C         46.48526        48.10665        -0.74664
C         47.69589        50.26185        -0.45459
C         46.44733        51.05382        -0.54771
C         47.63314        53.02729         0.42441
C         46.41276        52.40017         0.06744
C         47.58090        54.30846         1.04645
C         46.38663        54.96548         1.21148
C         50.26492        20.22249        -0.17581
C         48.97055        20.93120        -0.28341
C         50.18135        23.06013         0.17207
C         48.99451        22.37333         0.02084
C         50.19947        24.49822         0.09615
C         48.96469        25.19915        -0.13452
C         50.19749        27.31305        -0.15054
C         48.99707        26.61008        -0.29899
C         50.15288        28.77533         0.02667
C         48.94900        29.55379        -0.25234
C         50.20112        31.67945        -0.06844
C         48.95149        30.94927        -0.13624
C         50.19443        33.10247        -0.10422
C         48.95343        33.82112        -0.15082
C         50.19502        35.96289        -0.04021
C         48.95242        35.24307        -0.13503
C         50.18615        37.38424         0.06165
C         48.93478        38.11211        -0.01321
C         50.13628        40.24545         0.56580
C         48.91028        39.52195         0.07318
C         50.14572        41.72476         0.25295
C         48.92308        42.42051         0.08195
C         50.14859        44.57299         0.09861
C         48.92396        43.84474        -0.02148
C         50.17078        46.00481        -0.04398
C         48.96179        46.71692        -0.26764
C         50.18492        48.88925        -0.25519
C         48.96869        48.15091        -0.37221
C         50.19514        50.28180        -0.21303
C         48.95822        51.06558        -0.55385
C         50.11257        53.08538         0.29486
C         48.89948        52.40821         0.13711
C         51.39745        20.86466         0.14836
C         52.70689        23.05709         0.24461
C         51.43052        22.31407         0.58029
C         52.69861        24.46906         0.12659
C         51.43632        25.20205         0.08627
C         52.68277        27.35683        -0.12405
C         51.43746        26.62049        -0.01496
C         52.68045        28.74977        -0.24523
C         51.47979        29.53193         0.05438
C         52.64117        31.69771        -0.31110
C         51.44121        30.99084        -0.15589
C         52.65895        33.10441        -0.20847
C         51.43040        33.81572        -0.11342
C         52.67079        35.95922        -0.11847
C         51.43140        35.24927        -0.07514
C         52.63683        37.37172        -0.01924
C         51.42448        38.08188         0.13687
C         52.60523        40.24085         0.28279
C         51.43530        39.53640         0.25573
C         52.63612        41.71560         0.25995
C         51.34660        42.44608         0.34906
C         52.57847        44.59913         0.66875
C         51.34822        43.85607         0.32443
C         52.59392        46.05092         0.43718
C         51.44086        46.70284         0.07248
C         52.60210        48.91581         0.48126
C         51.51306        48.16285        -0.32214
C         52.65233        50.35676         0.04890
C         51.41175        51.03951        -0.05585
C         51.33886        52.44720         0.08910
C         55.13286        23.04876         0.08033
C         53.92757        22.37064         0.21669
C         55.16820        24.45410         0.01028
C         53.93333        25.17235         0.02576
C         55.13970        27.31528        -0.05576
C         53.93761        26.62082        -0.09769
C         55.19069        28.73105        -0.42854
C         53.89047        29.47521        -0.64469
C         55.09856        31.60323         0.06377
C         53.92274        31.00876        -0.73452
C         55.13941        33.10576        -0.11780
C         53.92961        33.81459        -0.18549
C         55.17988        35.92508        -0.14860
C         53.93109        35.24756        -0.17803
C         55.20888        37.39830        -0.22893
C         53.89863        38.12685        -0.14940
C         55.20229        40.23548         0.54126
C         53.89989        39.52614         0.36351
C         55.23359        41.72101         0.57417
C         53.93693        42.44080         0.41407
C         55.16156        44.63314         0.66403
C         53.89278        43.88344         0.81720
C         55.15000        45.99121         0.51184
C         53.88258        46.76473         0.82538
C         55.09658        48.84232         0.06807
C         53.91779        48.19785         0.38368
C         55.06824        50.25778        -0.19607
C         53.89195        50.98004        -0.18663
C         57.67637        24.53392        -0.16205
C         56.44421        25.15733        -0.00629
C         57.72476        27.39292        -0.03147
C         56.41156        26.61264         0.17707
C         57.68019        28.83269        -0.33446
C         56.44434        29.51355        -0.29928
C         57.62547        31.64113        -0.27787
C         56.40838        30.91112        -0.24356
C         57.60904        33.06164        -0.09602
C         56.39377        33.78564        -0.06887
C         57.66123        35.94187        -0.00504
C         56.40352        35.22750        -0.06611
C         57.68099        37.38017         0.06181
C         56.47019        38.11417         0.06439
C         57.68662        40.21321         0.39748
C         56.47885        39.51292         0.29117
C         57.71861        41.66358         0.83463
C         56.40429        42.39781         0.65463
C         57.64564        44.56030         0.24823
C         56.46055        43.89261         0.90587
C         57.59105        45.96102         0.01095
C         56.37674        46.70689         0.20021
C         57.56026        48.75077        -0.41689
C         56.35965        48.09621        -0.02840
C         58.88627        25.25048        -0.34841
C         60.09609        27.39633        -0.74590
C         58.92717        26.63810        -0.38834
C         60.09241        28.76527        -0.77883
C         58.88602        29.53820        -0.56906
C         60.00849        31.77141        -0.90208
C         58.85121        30.95997        -0.57015
C         60.03150        33.09813        -0.64595
C         58.92840        33.73618         0.16572
C         60.09142        35.94679         0.17977
C         58.88387        35.24099         0.06609
C         60.12019        37.33623         0.21290
C         58.92655        38.08082         0.16652
C         60.11505        40.28334         0.17019
C         58.92615        39.52475         0.25479
C         60.07824        41.68268         0.07894
C         58.90761        42.41292         0.26912
C         59.98862        44.54579        -0.44760
C         58.83996        43.83861         0.03428
C         59.95754        45.90122        -0.65776
C         58.76534        46.64285        -0.42964
C         58.72787        48.04614        -0.62112
O         53.11793        44.18287         2.02963
O         54.54715        37.94574        -1.45050
O         54.49280        39.65792         1.71646
O         47.86037        28.07686        -1.90818
O         48.27249        20.65595        -1.55253
O         42.87570        36.66809        -2.30019
O         34.16821        21.93038         2.91150
O         45.84763        48.37926        -2.05396
O         57.19417        27.10304         1.31505
O         30.44951        41.12598        -2.32314
O         54.58626        28.89073        -1.79558
O         32.23810        46.03534         1.75655
O         47.10682        22.72637         1.49544
O         40.72629        55.17450        -0.75406
O         45.77819        51.00755        -1.86810
O         50.80431        29.15486         1.29808
O         53.39556        42.21914        -0.93558
O         44.46216        26.88258        -1.90701
O         34.14834        34.37833        -2.45581
O         32.83144        49.65958        -0.85015
O         56.67643        44.02826         2.35319
H         57.33879        43.33724         2.61075
O         36.76291        25.65578         2.71009
H         36.66195        24.78037         3.14382
O         49.08430        51.38405        -2.00307
H         48.17596        51.51919        -2.35315
O         28.00450        33.33948         1.29799
H         27.22493        32.88225         1.68137
O         29.02962        34.98963        -2.75028
H         29.12386        35.87342        -3.16593
O         50.04447        40.17470         2.03997
H         49.19816        40.59581         2.30197
O         41.18408        51.09711        -1.89218
H         41.92588        51.62755        -2.25537
O         27.93470        28.49617        -1.90663
H         28.76907        28.01939        -2.10575
O         51.39470        22.29742         2.05046
H         50.49725        22.01322         2.32615
O         59.25824        33.45569         1.58114
H         59.34973        32.48241         1.66680
O         39.22749        26.99063         2.32117
H         38.40569        26.60591         2.72077
O         57.94675        41.61874         2.30182
H         57.28230        41.00251         2.68065
O         52.18456        48.92213         1.87746
H         52.68035        48.19879         2.34218
O         36.96017        51.83735         2.88582
H         36.96895        52.69731         3.35876
O         54.09898        31.36852        -2.12033
H         54.48011        30.58009        -2.57591
O         53.83711        46.81036         2.30465
H         53.69617        45.87206         2.60078
O         54.80162        31.33392         1.46651
H         55.49926        31.75332         2.01259
O         51.93308        48.20099        -1.71402
H         51.17436        47.92769        -2.27126
O         24.00994        42.32700        -2.74317
H         24.01040        41.37937        -2.99679
O         27.65824        45.60274         1.82446
H         27.67072        46.49018         2.24288
H         22.04920        26.92119         0.44478
H         22.02337        29.34574         0.06399
H         22.02543        31.18607        -0.34019
H         22.01329        33.58563        -0.64734
H         22.00051        35.47673        -0.69719
H         22.00431        37.89848        -0.78535
H         22.08584        39.78901        -0.25344
H         22.05832        42.21306        -0.48555
H         22.09693        44.09995        -1.42906
H         22.08611        46.55717        -1.10451
H         25.38321        23.62126         1.16382
H         23.27333        24.83429         0.84749
H         25.39852        49.82159        -0.05858
H         23.30719        48.65124        -0.60011
H         27.01703        22.72754         1.46842
H         26.96405        50.66368         0.60788
H         29.11911        21.55572         1.75744
H         29.05288        51.87080         0.90800
H         32.76874        19.32843         1.40274
H         30.71318        20.58475         1.37085
H         32.82537        53.76851         2.13353
H         30.70698        52.62160         1.79933
H         34.44537        18.40654         1.57957
H         34.45882        54.81473         1.89529
H         36.49897        17.15828         1.20244
H         36.54973        56.05595         1.83122
H         40.16549        14.94929         0.63116
H         38.06956        16.19592         0.90605
H         40.24641        58.30150         1.64136
H         38.12732        57.10158         1.53399
H         42.60642        14.90233         0.34339
H         42.74296        58.22637         1.84023
H         44.75018        16.07075         0.11217
H         44.83256        56.98287         1.62206
H         48.50817        18.13483        -0.26216
H         46.40194        16.98099         0.09915
H         48.50426        54.79297         1.38830
H         46.39582        55.95756         1.68018
H         50.29827        19.15891        -0.45438
H         50.12863        54.13741         0.61196
H         52.32960        20.28386         0.20107
H         52.26240        53.02595         0.22692
H         56.06685        22.47178         0.08189
H         53.95447        21.27910         0.32914
H         55.99984        50.79140        -0.42176
H         53.92464        52.04948        -0.43996
H         57.72726        23.43886        -0.23971
H         57.57207        49.83541        -0.58212
H         59.80443        24.68087        -0.55384
H         61.02665        26.84851        -0.95655
H         61.02839        29.29521        -1.00393
H         60.86013        31.29717        -1.41142
H         60.90847        33.69692        -0.93190
H         61.03571        35.39307         0.27305
H         61.08823        37.84417         0.31511
H         61.08213        39.78022         0.04047
H         61.01438        42.19325        -0.18488
H         60.92428        44.00529        -0.63941
H         60.85663        46.42905        -1.00703
H         59.64070        48.56965        -0.93938
