         236
 CSIRO Nanostructure Databank - Neutral Graphene Oxide Data Set
C        -11.05822         0.61820        -0.65921
C         -9.87041         1.40222        -0.39046
C         -8.69022         0.74497        -0.02226
C         -7.43970         1.45292         0.02243
C         -6.23284         0.78422         0.25004
C         -4.96802         1.44904         0.04173
C         -3.76168         0.77875         0.01656
C         -2.54573         1.44391        -0.51171
C         -1.27905         0.65060        -0.60147
C          0.03021         1.36606        -0.71289
C          1.18076         0.70961         0.02887
C          2.50115         1.41111        -0.20740
C          3.74445         0.69213        -0.18838
C          4.94515         1.41261        -0.26310
C          6.21768         0.75020        -0.61945
C          7.45345         1.43196        -0.13285
C          8.73829         0.67827        -0.14077
C         10.00003         1.44947        -0.08335
C         11.19961         0.63749        -0.00934
C         -9.89203         2.83544        -0.48301
C         -8.72635         3.58158        -0.39484
C         -7.45084         2.88035        -0.29339
C         -6.27497         3.57895        -0.44217
C         -4.98806         2.92075        -0.16538
C         -3.71346         3.67080        -0.37314
C         -2.44122         2.91875        -0.53374
C         -1.25161         3.58854        -0.69664
C          0.03051         2.85861        -0.85556
C          1.32569         3.64201        -0.70540
C          2.50107         2.78980        -0.29222
C          3.73848         3.54843         0.08169
C          4.99810         2.81812        -0.27399
C          6.22220         3.52590        -0.42033
C          7.46371         2.90878        -0.17335
C          8.71434         3.60726         0.04816
C          9.95016         2.82285         0.02691
C         -8.71642         5.02503        -0.31825
C         -7.54489         5.75620        -0.37017
C         -6.29322         5.03300        -0.71615
C         -5.02005         5.79732        -0.92715
C         -3.67698         5.05602        -1.02161
C         -2.50067         5.75120        -0.35522
C         -1.19320         5.03715        -0.46054
C         -0.03883         5.68323        -0.12308
C          1.22399         4.89781         0.17484
C          2.49413         5.71139        -0.02302
C          3.69914         5.01913        -0.24414
C          4.91236         5.70141        -0.47881
C          6.06733         4.90021        -0.98116
C          7.66745         5.89385         0.56436
C          8.79110         4.98708         0.28385
C         -7.47599         7.17715        -0.15260
C         -6.30213         7.90681        -0.22066
C         -5.02677         7.28336        -0.65420
C         -3.74894         8.00774        -0.32171
C         -2.51590         7.20919        -0.07745
C         -1.26344         7.92164         0.15328
C         -0.03251         7.10270         0.40613
C          1.22938         7.89268         0.07577
C          2.48270         7.11747        -0.11099
C          3.70892         7.76240        -0.38192
C          4.94858         7.10705        -0.41275
C          6.22587         7.94870        -0.19124
C          7.50021         7.09326        -0.08474
C         -6.24562         9.28771         0.20170
C         -5.07843         9.95006         0.48126
C         -3.78083         9.32932         0.35667
C         -2.60667         9.89392         0.80432
C         -1.30697         9.24185         0.66478
C         -0.11016         9.84150         1.11093
C          1.20096         9.33854         0.66668
C          2.44769         9.83389         1.30939
C          3.68218         9.60870         0.77497
C          4.98054         9.57439         1.44891
C          6.04877         8.83737         1.05413
C        -11.04988        -0.74992        -0.65947
C         -9.88214        -1.49873        -0.26204
C         -8.73985        -0.70888         0.24679
C         -7.47361        -1.43918         0.61066
C         -6.19571        -0.62487         0.81471
C         -4.93686        -1.36819         0.41082
C         -3.62720        -0.61610         0.61251
C         -2.45577        -1.44537         0.11274
C         -1.25237        -0.78586        -0.23485
C         -0.06575        -1.48648        -0.43792
C          1.21558        -0.80202        -0.15730
C          2.50649        -1.56229        -0.19581
C          3.84040        -0.81948        -0.05448
C          4.99059        -1.46006        -0.82293
C          6.23782        -0.69068        -0.96776
C          7.53471        -1.43965        -1.06132
C          8.79923        -0.71770        -0.68814
C          9.99355        -1.51155        -0.34263
C         11.18294        -0.73583        -0.04682
C         -9.82350        -2.87683        -0.24184
C         -8.61277        -3.60578         0.06973
C         -7.41640        -2.90047         0.37091
C         -6.20316        -3.60675         0.49441
C         -4.92211        -2.85203         0.46041
C         -3.63128        -3.47236         0.99088
C         -2.42886        -2.83943         0.32963
C         -1.29039        -3.60845         0.03160
C         -0.10909        -2.94856        -0.53835
C          1.22181        -3.72797        -0.78200
C          2.49168        -2.90995        -0.83000
C          3.65519        -3.38270        -1.35951
C          4.96802        -2.78411        -1.16179
C          6.21996        -3.61264        -1.24745
C          7.50411        -2.91281        -1.00608
C          8.67835        -3.59811        -0.71122
C          9.91530        -2.88609        -0.42290
C         -8.56171        -5.01950        -0.02968
C         -7.37239        -5.73052         0.16818
C         -6.18136        -5.01250         0.41456
C         -4.91574        -5.74538         0.67050
C         -3.64198        -4.99384         0.94003
C         -2.35100        -5.69801         0.76043
C         -1.23522        -5.02437         0.32637
C          0.12951        -5.67108         0.48876
C          1.26637        -5.10904        -0.33218
C          2.34745        -6.09948        -0.75600
C          3.68544        -5.51638        -1.09348
C          4.86471        -5.75753        -0.44120
C          6.17357        -5.12796        -0.85595
C          7.48449        -5.77406        -0.50747
C          8.64299        -5.03999        -0.56558
C         -7.36845        -7.24992         0.10909
C         -5.99064        -7.89231         0.10021
C         -4.84477        -7.18387         0.31550
C         -3.47656        -7.83023         0.14361
C         -2.38508        -7.18591         1.03387
C         -1.07597        -7.86690         0.76351
C          0.06933        -7.18217         0.50126
C          1.33269        -7.88288         0.60878
C          2.47203        -7.27991         0.16266
C          3.76509        -7.71731         0.62893
C          4.81391        -6.82170         0.54422
C          6.72161        -7.88632         0.54194
C          7.56486        -7.24071        -0.31078
C         -5.90890        -9.33527        -0.06417
C         -4.73470       -10.01493         0.09469
C         -3.47810        -9.33601         0.32502
C         -2.31573       -10.01071         0.61510
C         -1.04623        -9.33297         0.84844
C          0.13692        -9.96698         1.13066
C          1.36893        -9.13216         1.45225
C          2.72630        -9.80268         1.36972
C          3.87987        -9.08752         1.14078
C          5.17563        -9.77767         1.08841
C          6.40311        -9.29618         0.72865
O         -4.27725         8.02675        -1.68145
O          6.39993         8.83232        -1.31003
H          6.43144         8.28573        -2.12238
O          6.71527         5.25771        -1.95953
O          1.78935        -6.60141        -2.02074
H          1.87433        -5.87382        -2.67740
O          0.50896        -5.30680         1.87931
H         -0.12974        -5.75493         2.47750
O          6.21525        -4.66651        -2.24135
O          7.96214         0.80231         1.10706
O          0.21221         1.95659        -2.02035
O          5.93482        -7.02402         1.34798
O          4.28998        -1.04723         1.32306
H          3.47685        -1.13782         1.87411
O          1.13724         4.46717         1.56046
H          0.85706         5.26544         2.07848
O         -4.28348         3.64378         0.96521
O          1.21901        -8.72996         2.86187
H          1.94204        -8.09827         3.06226
O          1.65827         4.14202        -2.02806
H          1.45657         3.41997        -2.66615
O          0.27242        -3.46518        -1.88614
O         -8.44237        -1.07599         1.66034
O         -3.56395        -3.10366         2.39193
H         -4.04650        -3.79714         2.89707
O          3.61825        -4.56809        -2.12208
O         -2.67973        -7.44624         2.42122
H         -3.45592        -6.88477         2.66723
O         -4.89126        -2.11688        -0.83218
O          0.84063         0.94772         1.42278
H          1.27546         0.24383         1.95617
O          6.16547         0.34346        -2.03110
O          3.72009         9.15386        -0.55617
O          6.74367         5.48201         1.49029
H          6.97813         4.59595         1.83264
O         -8.12926        -7.77086         1.21365
H         -7.67077        -7.52347         2.04289
O          3.73536         3.51643         1.56793
H          2.81764         3.77642         1.84770
O          1.77090        -1.47439         1.07509
O          8.41750        -0.87010        -2.09139
O         -5.83810         5.43109        -2.08903
O          1.12918         9.04143        -0.77861
O         -2.11757         0.82013        -1.79239
O          0.00212         6.91066         1.88842
H         -0.91086         6.62313         2.13252
O         -4.44365        -5.51664         2.08107
O         -3.33659         4.90406        -2.40693
H         -4.17447         4.95275        -2.92379
O         -6.05485        -0.44403         2.25871
H         -6.97385        -0.35626         2.61344
O         -2.77126         6.17664         1.02387
O         -3.36245        -0.38056         2.01681
H         -4.22851        -0.26582         2.47646
O         -3.07095        -7.54524        -1.22675
H         -3.64601        -8.06368        -1.82756
H         12.12876        -1.28155         0.09211
H         12.16006         1.15281         0.14436
H         10.89370         3.37968         0.14365
H          9.78987         5.44945         0.21244
H          8.27858         7.35219        -0.81773
H          6.93512         8.88310         1.70879
H          5.05952        10.12563         2.40092
H          2.35270        10.18472         2.34752
H         -0.15204        10.77762         1.68796
H         -2.63499        10.88599         1.28099
H         -5.12499        10.98054         0.86426
H         -7.20329         9.79978         0.38081
H         -8.39976         7.69255         0.15413
H         -9.67539         5.54411        -0.16727
H        -10.86005         3.34145        -0.61450
H        -11.97535         1.15557        -0.94179
H        -11.95560        -1.30523        -0.94445
H        -10.70885        -3.45687        -0.54429
H         -9.48544        -5.57101        -0.25909
H         -7.91155        -7.57449        -0.81921
H         -6.84476        -9.88690        -0.23160
H         -4.73382       -11.11537         0.06389
H         -2.33793       -11.11067         0.68329
H          0.17896       -11.06342         1.22399
H          2.79897       -10.86686         1.64688
H          5.10835       -10.86739         1.24656
H          7.21489       -10.02504         0.57377
H          8.30886        -7.79632        -0.90165
H          9.59909        -5.55053        -0.37422
H         10.80840        -3.49219        -0.20502
