         310
 CSIRO Nanostructure Databank - Neutral Graphene Oxide Data Set
C         30.43694        57.10425         0.87119
C         30.46524        58.49576         1.22305
C         29.41606        59.07813         1.97365
C         30.61300        61.18407         2.08162
C         29.49045        60.41336         2.37588
C         32.71996        52.94644        -0.24133
C         32.66471        54.34314        -0.32186
C         31.52225        55.05921         0.09594
C         32.60187        57.28542        -0.34750
C         31.48045        56.47005         0.19722
C         32.63152        58.75343        -0.00589
C         31.58371        59.29699         0.87517
C         32.90614        61.36761         1.15393
C         31.68812        60.63389         1.33667
C         35.19986        48.67976        -0.03374
C         35.17548        50.08594        -0.21244
C         33.96096        50.80978        -0.20612
C         35.18771        52.90411        -0.49167
C         33.94308        52.21314        -0.34534
C         35.18648        54.33935        -0.80349
C         33.86701        55.07556        -0.78630
C         35.18922        57.26521        -0.57987
C         33.88613        56.57647        -0.72965
C         35.18652        58.76249        -0.51648
C         33.92828        59.51719        -0.15480
C         35.28960        61.48989         0.63640
C         34.04659        60.81227         0.57278
C         37.39123        44.24837         0.27627
C         37.14396        45.53856        -0.26499
C         36.28597        46.51644         0.21743
C         37.64086        48.62894        -0.30318
C         36.38011        47.92912        -0.11651
C         37.63138        50.04815        -0.26314
C         36.42397        50.78166        -0.31643
C         37.62873        52.96914        -0.66043
C         36.41933        52.22511        -0.46286
C         37.65999        54.38526        -0.64979
C         36.43441        55.10898        -0.65255
C         37.66454        57.20394        -0.16268
C         36.38137        56.53540        -0.52888
C         37.70210        58.69010         0.01389
C         36.47342        59.48660        -0.27361
C         37.73801        61.51783         0.34779
C         36.49796        60.88367         0.24744
C         40.25484        40.34078         0.78802
C         40.21946        41.61996         0.15605
C         39.04015        42.36717         0.53274
C         40.30052        44.45024        -0.93732
C         38.47854        43.44779        -0.14625
C         40.26659        45.84560        -0.79772
C         39.03088        46.60579        -0.87660
C         40.16634        48.61233        -0.08070
C         38.90762        47.90787        -0.42752
C         40.15073        50.10856         0.01734
C         38.86296        50.91624        -0.02786
C         40.15848        52.94967        -0.98376
C         38.85165        52.13875        -0.98637
C         40.16786        54.41887        -0.75850
C         38.93798        55.10842        -0.62115
C         40.16712        57.23204        -0.28580
C         38.95184        56.50780        -0.38152
C         40.18662        58.67547        -0.10478
C         38.98642        59.40687        -0.02806
C         40.20545        61.51858         0.14827
C         38.98021        60.83053         0.12221
C         42.74531        36.05869         1.21754
C         42.65272        37.38444         0.76094
C         41.45483        38.11019         1.08825
C         42.73411        40.08525        -0.58234
C         41.06499        39.26196         0.39895
C         42.62981        41.49175        -0.61647
C         41.39204        42.20270        -0.51385
C         42.68830        44.37430        -0.58915
C         41.46410        43.66323        -0.69461
C         42.70725        45.79290        -0.45823
C         41.48307        46.52564        -0.50073
C         42.68633        48.61719        -0.36920
C         41.46846        47.93206        -0.31710
C         42.73965        50.09169        -0.28298
C         41.44663        50.84267        -0.15444
C         42.69350        52.98452        -0.51241
C         41.44169        52.23039        -0.69621
C         42.64834        54.37416        -0.57014
C         41.40479        55.10446        -0.59657
C         42.62975        57.25883        -0.20868
C         41.41744        56.53527        -0.38312
C         42.65650        58.67228        -0.02975
C         41.42344        59.38607        -0.02582
C         42.67502        61.50739         0.11223
C         41.43804        60.82032         0.07420
C         45.14393        33.38840         2.13457
C         43.94680        34.02475         1.84305
C         45.18205        35.93846         0.85381
C         43.95452        35.32402         1.26496
C         45.06777        37.23641         0.23447
C         43.84602        37.98157         0.18185
C         45.17593        40.01816        -0.43126
C         43.91792        39.34046        -0.29110
C         45.20146        41.44502        -0.62109
C         43.93153        42.16949        -0.84249
C         45.24202        44.32601        -0.42766
C         43.97432        43.68617        -0.80341
C         45.18770        45.74407        -0.04752
C         43.94402        46.50737        -0.37249
C         45.05491        48.67641        -1.09782
C         43.90778        47.90268        -0.52825
C         45.19843        50.11727        -0.71723
C         43.96085        50.84187        -0.66780
C         45.16908        52.96410        -0.51523
C         43.92595        52.24717        -0.58852
C         45.15967        54.32046        -0.32250
C         43.92968        55.09434        -0.55257
C         45.13097        57.26015         0.18945
C         43.93016        56.58485        -0.32392
C         45.13586        58.66880         0.25516
C         43.89509        59.38044         0.09025
C         45.15312        61.50397         0.19202
C         43.91177        60.81460         0.12943
C         46.35232        34.05378         1.91324
C         47.71779        35.95013         1.30395
C         46.42411        35.31747         1.27636
C         48.07799        37.00551         0.45624
C         46.21957        37.86950        -0.30937
C         47.70738        39.87001        -0.65062
C         46.36981        39.25345        -0.42655
C         47.68219        41.39283        -0.74362
C         46.41033        42.14585        -0.58218
C         47.68754        44.27891        -0.14722
C         46.42504        43.58284        -0.33983
C         47.74785        45.65357        -0.06230
C         46.55423        46.41557         0.28819
C         47.75172        48.58515        -0.16403
C         46.71927        47.87601         0.43613
C         47.68397        50.03945        -0.30674
C         46.42656        50.74464        -0.49044
C         47.64899        52.95466        -0.17542
C         46.46629        52.23448        -0.75474
C         47.62816        54.27021         0.15484
C         46.34385        54.99756         0.23674
C         47.58798        57.18529         0.91524
C         46.30581        56.46354         0.57856
C         47.60124        58.68309         0.76493
C         46.35327        59.39046         0.43154
C         47.64417        61.48696         0.38045
C         46.38773        60.81267         0.32550
C         49.02722        38.01769         0.60510
C         50.17627        39.98044        -0.19603
C         49.00032        39.26287        -0.13528
C         50.26620        41.37660        -0.76973
C         48.96570        42.06672        -0.36729
C         50.25079        44.24629         0.04842
C         48.95069        43.51188        -0.04385
C         50.25332        45.71901        -0.14970
C         48.96733        46.38013        -0.60522
C         50.19300        48.56698        -0.50482
C         49.00189        47.88238        -0.41418
C         50.15064        50.03941        -0.62618
C         48.87957        50.73752        -0.36798
C         50.18510        52.94371        -0.08973
C         48.90249        52.18319        -0.09868
C         50.09760        54.44397        -0.28619
C         48.89907        54.98489         0.47088
C         50.13746        57.21775         0.62613
C         48.89497        56.44454         0.80816
C         50.11245        58.65320         0.69840
C         48.89131        59.37802         0.62384
C         50.14224        61.47598         0.48805
C         48.89148        60.79995         0.49253
C         51.50641        42.14978        -0.35960
C         52.74744        44.27618        -0.02183
C         51.52429        43.49731        -0.11731
C         52.78859        45.65755        -0.17812
C         51.53791        46.38543        -0.51376
C         52.80945        48.62028        -0.37158
C         51.51730        47.87448        -0.64702
C         52.73916        50.11908        -0.53530
C         51.42226        50.81638        -0.75133
C         52.59231        53.00999        -0.46945
C         51.43805        52.27248        -0.46010
C         52.57866        54.44448        -0.20931
C         51.40426        55.14145         0.00098
C         52.58749        57.23653         0.55749
C         51.38057        56.54586         0.37678
C         52.53744        58.57524         1.27182
C         51.33734        59.36479         0.80177
C         52.62461        61.46343         0.71959
C         51.36201        60.78019         0.68917
C         53.99349        46.42248        -0.12026
C         55.35056        48.42826         0.00320
C         54.08783        47.81431        -0.28031
C         55.73723        49.74830        -0.30937
C         53.89501        50.97008        -0.90248
C         55.07809        53.09506        -0.74540
C         53.85026        52.35583        -0.80735
C         55.15003        54.40238        -0.23360
C         53.86661        55.15975        -0.27326
C         55.14277        57.18959         0.55573
C         53.85310        56.62609         0.16096
C         55.15434        58.60341         0.96177
C         53.86129        59.34368         1.20821
C         55.08457        61.46395         0.74588
C         53.85220        60.79867         0.89328
C         56.72436        50.55548         0.27886
C         57.67015        52.88945         0.61114
C         56.91029        51.94245        -0.04381
C         57.60967        54.33202         0.36721
C         56.37317        55.05354         0.10876
C         57.58331        57.20379         0.50639
C         56.34692        56.48285         0.37734
C         57.58504        58.63772         0.54149
C         56.37687        59.35880         0.67572
C         57.56998        61.47861         0.55123
C         56.34484        60.78420         0.68145
C         58.78151        55.06623         0.57140
C         60.03354        57.21330         0.50961
C         58.82012        56.49454         0.51570
C         60.05243        58.63116         0.45968
C         58.81623        59.35130         0.48317
C         60.04795        61.46866         0.41244
C         58.80303        60.78305         0.47941
C         61.26719        59.36528         0.40730
C         61.24869        60.76094         0.37620
O         47.48760        57.99838         2.10589
O         45.68240        45.90861         1.34943
O         43.98263        42.95945        -2.08081
O         37.56737        57.81367         1.19348
O         45.71361        48.18202        -2.00611
O         52.74019        49.50341         0.80790
O         46.00407        55.44607         1.61413
O         47.78093        40.56407        -1.94473
O         41.60287        39.35389        -0.91188
O         49.64343        52.45832         1.17595
O         32.94388        57.08158        -1.74415
O         40.14377        49.29126         1.23514
O         51.56465        47.01130        -1.84787
O         47.28249        37.07981        -0.71387
O         56.20975        52.43932        -1.18348
O         44.12723        56.01603        -1.70454
O         49.08561        55.37984         1.84185
O         48.89142        42.47986         1.02873
O         32.90206        59.57961        -1.18730
O         35.95329        59.36713        -1.63272
O         55.01733        50.35591        -1.38610
O         53.86910        56.21453        -1.27609
O         34.41917        54.60768        -2.05072
O         50.25753        45.18688         1.19741
O         40.99168        52.43661        -2.09258
O         54.68614        58.95771         2.36155
O         42.28428        50.66784         1.01844
O         39.13472        43.80286        -1.34614
O         50.72152        50.48628        -1.98965
O         37.92137        45.93245        -1.38556
O         45.83755        48.46753         1.27026
H         45.32279        47.74075         1.70413
O         46.68308        52.32986        -2.21260
H         45.98644        51.80062        -2.65698
O         52.25577        58.29606         2.67715
H         53.12511        58.30505         3.14411
O         49.79607        54.69890        -1.68807
H         50.53946        54.36651        -2.23447
O         48.90168        46.17177        -2.04821
H         49.70430        46.59901        -2.43656
O         50.33554        41.31327        -2.21879
H         49.51962        40.85018        -2.53126
O         38.72696        51.49516         1.29522
H         38.97179        50.79228         1.93975
O         38.62354        51.63256        -2.32034
H         39.41837        51.84258        -2.86426
H         29.59446        56.49494         1.23211
H         28.53763        58.47045         2.23280
H         30.67814        62.22372         2.43248
H         28.66305        60.85406         2.94941
H         31.80355        52.39325         0.01346
H         30.66209        54.48825         0.47786
H         32.98084        62.36642         1.61043
H         34.24904        48.15638         0.14598
H         33.01114        50.26677        -0.09103
H         35.31676        62.49790         1.07736
H         36.83886        43.94566         1.17703
H         35.48504        46.22462         0.91404
H         37.77550        62.57667         0.64502
H         39.55969        40.17755         1.62549
H         38.45978        41.95346         1.37210
H         40.21168        62.61261         0.26074
H         41.84143        35.58566         1.63081
H         40.85758        37.75570         1.94128
H         42.67369        62.60640         0.16302
H         45.14487        32.39087         2.59497
H         42.98532        33.55719         2.09819
H         45.15409        62.60373         0.16778
H         47.29088        33.57905         2.23409
H         48.43048        35.60428         2.06780
H         47.65476        62.58452         0.30672
H         49.82485        37.89282         1.35252
H         51.08886        39.51837         0.21110
H         50.16008        62.57022         0.37976
H         52.46505        41.62320        -0.49033
H         53.69517        43.73090         0.10758
H         52.63613        62.54756         0.53055
H         54.92669        45.87417         0.08289
H         56.08683        47.80368         0.53350
H         55.07679        62.55508         0.60092
H         57.29840        50.14823         1.12299
H         58.39215        52.55490         1.37126
H         57.57151        62.57853         0.54197
H         59.72192        54.52477         0.75161
H         60.98666        56.66341         0.51728
H         60.05629        62.56795         0.39849
H         62.22442        58.82503         0.39059
H         62.19876        61.31189         0.33012
