         598
 CSIRO Nanostructure Databank - Neutral Graphene Oxide Data Set
C         23.33483        69.57934        -2.58344
C         23.36828        70.91796        -3.00453
C         22.22464        71.60767        -3.44145
C         23.44977        73.69046        -3.81626
C         22.27464        72.97377        -3.80416
C         25.71967        65.34002        -1.76964
C         25.70738        66.74797        -1.88587
C         24.52379        67.49266        -2.10200
C         25.73432        69.65263        -1.93117
C         24.52723        68.90003        -2.21274
C         25.81964        71.03741        -2.30572
C         24.69724        71.55646        -3.12460
C         25.95899        73.79587        -3.37072
C         24.73834        73.03613        -3.61091
C         28.00631        61.08003        -0.55112
C         27.77595        62.28358        -1.27396
C         26.75634        63.22166        -1.16891
C         28.17215        65.31914        -1.49510
C         26.90500        64.60539        -1.56153
C         28.16086        66.76671        -1.46788
C         26.93201        67.46122        -1.66425
C         28.01457        69.48137        -0.94547
C         26.87150        68.87695        -1.51214
C         28.06219        71.54643        -1.32953
C         26.96246        71.87830        -2.17285
C         28.35714        73.82508        -2.81371
C         27.09070        73.17053        -2.83754
C         30.10624        56.78181         0.73309
C         29.97297        58.07534         0.12274
C         29.10001        59.12368         0.26149
C         30.55818        61.08904        -0.55642
C         29.24378        60.42605        -0.40089
C         30.65080        62.51552        -0.72461
C         29.61276        63.28699        -1.33145
C         30.51238        65.44438        -0.59683
C         29.39848        64.66503        -1.17992
C         30.60368        66.87610        -0.90229
C         29.36608        67.52579        -1.25790
C         30.50972        69.74109        -0.76803
C         29.29559        68.92772        -1.02870
C         30.54223        71.27688        -0.98628
C         29.36568        72.00483        -1.50884
C         30.76872        73.87733        -2.23155
C         29.51413        73.22776        -2.25959
C         32.72861        52.73231         0.93207
C         32.68698        54.11572         1.18384
C         31.47940        54.81252         0.99260
C         32.59048        57.03962         1.37833
C         31.38047        56.21406         0.93089
C         32.86677        58.38349         0.71514
C         31.92674        59.03453        -0.07070
C         32.94058        61.17486         0.27035
C         31.78570        60.44650        -0.15109
C         32.97173        62.58533         0.08152
C         31.83572        63.23875        -0.36250
C         33.03053        65.50399        -0.23771
C         31.79630        64.71662        -0.27976
C         32.99596        66.89667        -0.29202
C         31.77957        67.57824        -0.66764
C         33.06015        69.78831        -0.67225
C         31.82144        69.03021        -1.09021
C         33.07471        71.21526        -0.90894
C         31.86456        71.89626        -1.22243
C         33.11499        73.98296        -1.48417
C         31.91347        73.25330        -1.66553
C         35.25910        48.61163         0.15773
C         35.19071        49.89550         0.66717
C         33.98174        50.65267         0.66273
C         35.02275        52.60639         1.90391
C         33.90767        51.97685         1.09167
C         35.06928        54.11534         1.80597
C         33.91048        54.83483         1.55727
C         35.03696        57.01467         1.88539
C         33.88725        56.27756         1.57515
C         35.09957        58.45235         1.78756
C         33.97849        59.14390         1.20020
C         35.10261        61.34956         1.51583
C         34.02468        60.52821         0.92080
C         35.31754        62.71351         1.01523
C         34.26070        63.29403         0.19683
C         35.46020        65.55179         0.44088
C         34.30257        64.79827        -0.05263
C         35.40500        66.97705         0.25218
C         34.22893        67.64539        -0.10639
C         35.43524        69.83459        -0.12042
C         34.21323        69.09578        -0.28817
C         35.49440        71.19791        -0.54040
C         34.31344        71.93788        -0.88560
C         35.36680        74.26640        -0.59890
C         34.30188        73.38433        -1.03317
C         37.89825        44.59260        -1.17973
C         37.81618        45.78081        -0.26911
C         36.55484        46.59193        -0.37270
C         37.74659        48.61665         0.36354
C         36.50508        47.88824         0.07445
C         37.71848        49.96381         0.65587
C         36.44476        50.56175         1.10150
C         37.59969        52.82420         1.49166
C         36.38845        51.94979         1.64850
C         37.60307        54.16330         2.12739
C         36.28057        54.78729         2.31484
C         37.52884        57.04364         2.39377
C         36.24796        56.32450         2.35823
C         37.49722        58.46321         2.40260
C         36.29349        59.14937         2.14030
C         37.54752        61.39706         2.28119
C         36.28409        60.63351         2.18183
C         37.55331        62.77413         2.01302
C         36.45819        63.44786         1.34040
C         37.75324        65.59701         1.37123
C         36.54930        64.86612         1.01120
C         37.86261        67.02313         0.96388
C         36.66932        67.72060         0.38107
C         37.82542        69.91567         0.46668
C         36.63589        69.19839         0.30005
C         37.91920        71.27741         0.03244
C         36.78641        71.76301        -0.65427
C         37.85970        74.35492         0.04479
C         36.71484        73.89803        -0.63184
C         40.37801        40.69761        -2.91506
C         40.03942        42.05504        -2.88233
C         39.02751        42.72379        -2.17895
C         40.29615        44.95903        -1.63008
C         39.05975        44.09838        -1.73445
C         40.28879        46.04062        -0.63070
C         39.07351        46.60917        -0.23224
C         40.20461        48.62640         0.69508
C         39.01672        47.93673         0.25551
C         40.18814        49.96888         1.01368
C         38.99876        50.76894         0.54430
C         40.15067        52.88332         1.51312
C         38.90192        52.20169         1.08457
C         40.08935        54.26517         1.97453
C         38.78207        54.89547         2.23089
C         39.96062        57.04489         2.74608
C         38.73921        56.31893         2.50849
C         39.99129        58.43022         2.82506
C         38.69525        59.21269         2.94772
C         39.99157        61.31027         2.48544
C         38.76948        60.67249         2.53338
C         40.05670        62.77427         2.55162
C         38.74626        63.55951         2.35272
C         40.08664        65.73338         2.27834
C         38.82783        64.98321         1.96389
C         40.15254        67.21602         2.07543
C         38.85240        67.93392         1.69349
C         40.30057        70.00186         1.06018
C         39.05142        69.20379         0.88479
C         40.22319        71.49560         0.91806
C         39.05402        72.12106         0.29341
C         40.27759        74.27308         0.37275
C         39.04878        73.56111         0.20735
C         43.00932        36.83778        -4.27070
C         43.00140        38.13292        -3.74061
C         41.77895        38.83976        -3.59221
C         42.93222        40.91994        -2.98979
C         41.69784        40.19354        -3.21389
C         42.94246        42.28204        -2.52095
C         41.86054        43.16891        -2.68014
C         42.92315        44.92605        -1.27571
C         41.74479        44.44465        -2.00857
C         42.87003        46.04041        -0.40018
C         41.53209        46.55903        -0.01907
C         42.66720        48.48696         1.42006
C         41.43409        47.81163         0.82464
C         42.64934        50.00467         1.37988
C         41.32736        50.65284         1.73838
C         42.60132        52.87104         1.69853
C         41.32744        52.16405         1.56224
C         42.57498        54.34781         2.10683
C         41.25099        54.92088         2.36372
C         42.50805        57.02414         3.19956
C         41.19998        56.27257         2.95508
C         42.47104        58.48692         3.05624
C         41.25548        59.12177         2.91067
C         42.54332        61.20526         2.13601
C         41.24878        60.52513         2.42497
C         42.51992        62.66798         1.80371
C         41.36699        63.48219         2.31697
C         42.57090        65.68380         1.61040
C         41.39270        64.97604         2.23282
C         42.65865        67.17446         1.74350
C         41.46180        67.89824         1.87310
C         42.78719        70.10136         1.64735
C         41.46036        69.37636         1.79024
C         42.77874        71.38321         0.90817
C         41.58525        72.25175         0.88163
C         42.71711        74.49536         0.34028
C         41.54633        73.67994         0.43589
C         45.58506        34.21178        -5.22186
C         44.35253        34.80836        -5.05502
C         45.53838        36.72186        -3.81287
C         44.20290        36.00786        -4.24145
C         45.48308        38.16708        -3.54900
C         44.23692        38.82108        -3.41223
C         45.42442        40.88141        -2.84102
C         44.19126        40.20868        -3.06685
C         45.40565        42.30823        -2.48900
C         44.14515        42.92869        -2.07802
C         45.37182        44.80660        -1.00898
C         44.13877        44.20943        -1.48184
C         45.32129        46.06739        -0.27530
C         44.04480        46.58993         0.15088
C         45.24824        48.61413         1.14998
C         43.99664        47.79814         1.02920
C         45.10753        50.12828         0.97198
C         43.83119        50.73333         1.53976
C         45.03787        52.72107         2.53099
C         43.82415        52.09145         1.89709
C         45.11976        54.27756         2.35366
C         43.81351        55.00386         2.60966
C         45.03624        57.10376         3.10277
C         43.80164        56.32549         2.96521
C         45.02947        58.46809         3.15284
C         43.75075        59.28196         3.29687
C         45.01048        61.31933         2.44199
C         43.83433        60.61123         2.55284
C         45.07822        62.67702         1.88361
C         43.80598        63.36427         1.52846
C         45.12235        65.53369         1.28125
C         43.80981        64.86712         1.37454
C         45.05684        66.99451         0.99314
C         43.91228        67.79046         1.52203
C         45.29728        69.92171         1.05119
C         44.04280        69.26137         1.58983
C         45.21646        71.26167         0.44072
C         43.91109        71.74960         0.19801
C         45.27559        74.31734         0.12290
C         43.94830        73.93808        -0.06582
C         46.79094        34.82560        -4.81571
C         47.98997        36.85590        -4.07625
C         46.80807        36.11893        -4.25780
C         47.97242        38.19252        -3.58778
C         46.70487        38.86490        -3.38682
C         47.92457        40.89332        -2.67093
C         46.67861        40.23026        -2.98546
C         47.94282        42.19667        -2.11709
C         46.69293        42.98406        -2.06451
C         47.84034        44.77882        -0.73203
C         46.58538        44.17309        -1.21440
C         47.81145        46.23778        -0.47155
C         46.52319        46.76400        -0.07677
C         47.71106        48.93796         0.48698
C         46.52451        48.05219         0.61945
C         47.60994        50.35677         0.88571
C         46.36652        50.90789         1.31333
C         47.56480        52.82293         2.29066
C         46.30969        52.14350         1.93838
C         47.59162        54.08210         3.11314
C         46.28720        54.86157         3.17165
C         47.58512        57.10210         3.26283
C         46.30874        56.36248         3.32287
C         47.61210        58.51337         3.21455
C         46.30177        59.23032         3.30455
C         47.56091        61.45740         2.80463
C         46.26463        60.71551         2.98893
C         47.55919        62.68756         1.94335
C         46.25668        63.38012         1.72583
C         47.57677        65.39767         0.89730
C         46.27830        64.78598         1.30895
C         47.59382        66.85662         0.47266
C         46.33332        67.66923         0.54876
C         47.60837        69.80581         0.26115
C         46.46603        69.13692         0.63241
C         47.63629        71.25643         0.12560
C         46.39227        71.97988         0.09824
C         47.65628        74.07278        -0.18697
C         46.41159        73.44023        -0.05715
C         49.16924        38.88049        -3.32967
C         50.39455        40.87191        -2.51118
C         49.17642        40.21249        -2.83394
C         50.40827        42.17190        -1.97553
C         49.14644        42.79953        -1.74618
C         50.33396        44.96052        -1.28591
C         49.12826        44.11133        -1.06726
C         50.26553        46.42155        -0.99250
C         48.96096        47.00000        -0.53011
C         50.16873        48.96962         0.38999
C         48.90154        48.50578        -0.34832
C         50.09519        50.42418         0.81551
C         48.84019        51.04909         1.07244
C         50.00521        52.97919         1.96930
C         48.80533        52.34129         1.67759
C         50.20099        54.10155         2.95185
C         48.90643        54.82192         3.34047
C         50.05429        57.06210         2.77516
C         48.85790        56.33660         3.30917
C         50.05200        58.54821         2.68449
C         48.82170        59.25248         3.08072
C         50.13522        61.37102         2.51070
C         48.87784        60.72017         2.97378
C         50.12484        62.88434         2.42899
C         48.86412        63.39102         1.73190
C         50.04780        65.52250         1.24716
C         48.85815        64.81474         1.32864
C         50.03094        66.93657         0.89447
C         48.86788        67.59421         0.57774
C         50.13430        69.78098         0.09821
C         48.85629        69.01830         0.12726
C         50.12157        71.25546         0.01889
C         48.87279        71.93778        -0.04191
C         50.11469        74.03676        -0.39022
C         48.88881        73.36918        -0.21310
C         51.62517        42.88916        -1.65083
C         52.79612        44.98857        -0.99556
C         51.63178        44.24148        -1.31756
C         52.85008        46.37840        -0.74747
C         51.57645        47.19399        -0.86062
C         52.61899        49.41166         0.02798
C         51.44585        48.62164        -0.36875
C         52.57729        50.41954         0.96141
C         51.28660        51.01882         1.27540
C         52.07427        52.88733         2.99895
C         51.21769        52.28276         1.89809
C         52.57265        54.26474         2.65880
C         51.36909        55.02171         2.63948
C         52.61213        57.10172         3.12492
C         51.34906        56.37775         2.76919
C         52.58194        58.55948         2.66210
C         51.36890        59.24068         2.59559
C         52.57103        61.35992         2.06732
C         51.32962        60.67473         2.39820
C         52.55975        62.72502         1.74243
C         51.35993        63.48685         1.78940
C         52.57479        65.57690         1.25183
C         51.32696        64.84177         1.43520
C         52.56734        66.96176         1.12022
C         51.29743        67.69759         1.04883
C         52.62909        69.83567         0.41267
C         51.34656        69.15412         0.69314
C         52.60710        71.21561         0.03452
C         51.34515        71.92520        -0.08535
C         52.57857        73.99576        -0.58094
C         51.35329        73.34573        -0.34666
C         54.10210        46.84752        -0.24792
C         55.60176        48.64456         0.72746
C         54.53521        48.18088        -0.05255
C         55.75527        50.03719         1.05814
C         53.79692        51.12470         1.33736
C         55.23777        52.72635         2.54763
C         54.02223        51.90735         2.43117
C         55.13268        54.11062         2.72668
C         53.86303        54.87963         2.70388
C         55.12201        57.04301         2.95776
C         53.86687        56.29335         2.80570
C         55.10329        58.56859         2.79673
C         53.82282        59.27221         2.49887
C         55.06162        61.35114         1.94329
C         53.81456        60.62299         2.12438
C         55.06683        62.67651         1.54708
C         53.78195        63.34502         1.11406
C         55.03021        65.50650         1.06468
C         53.82325        64.85192         1.22827
C         55.12098        66.97618         1.07968
C         53.80805        67.75426         1.11083
C         55.06341        69.78884         0.29033
C         53.82349        69.14475         0.58813
C         55.06686        71.18381        -0.02866
C         53.82578        71.89631        -0.13292
C         55.02484        73.98475        -0.66869
C         53.82625        73.31113        -0.48440
C         56.59497        50.60445         1.98942
C         57.69846        52.73102         2.40815
C         56.51783        52.03542         2.33492
C         57.73594        54.13783         2.78567
C         56.37832        54.87852         2.94667
C         57.58760        57.04404         2.58331
C         56.40595        56.34406         2.77660
C         57.57834        58.49899         2.46564
C         56.39482        59.21734         2.48106
C         57.62502        61.42252         1.96590
C         56.33984        60.69119         2.30315
C         57.53906        62.73214         1.30182
C         56.29497        63.39387         1.27325
C         57.44843        65.43421         0.51313
C         56.26464        64.77104         0.91760
C         57.45730        66.86727         0.27167
C         56.32398        67.63306         0.53084
C         57.47742        69.71958        -0.11130
C         56.29449        69.05724         0.26918
C         57.48540        71.10552        -0.44135
C         56.29218        71.84437        -0.31495
C         57.36323        73.78695        -1.43271
C         56.35490        73.34946        -0.41186
C         58.87893        54.94291         2.37608
C         60.01883        57.01333         1.88867
C         58.83714        56.32022         2.32710
C         60.06976        58.38735         1.76561
C         58.88516        59.16984         2.21309
C         59.97679        61.13037         0.98720
C         58.89424        60.63334         1.88584
C         59.89313        62.52969         0.49277
C         58.68420        63.35152         0.75082
C         59.78189        65.27900        -0.45187
C         58.63392        64.68333         0.32411
C         59.84487        66.78481        -0.39089
C         58.70557        67.50795        -0.09189
C         59.99081        69.65110        -0.67837
C         58.74404        68.97727        -0.09662
C         59.82171        70.97713        -1.30830
C         58.64616        71.69871        -1.09799
C         59.48716        73.46876        -2.61210
C         58.47946        73.00416        -1.72723
C         61.25169        59.05803         1.32138
C         62.41324        61.07007         0.43571
C         61.28376        60.41971         0.98275
C         62.40756        62.43399         0.02991
C         61.18674        63.23703         0.28887
C         62.29658        65.25948        -0.78489
C         61.12905        64.67176        -0.10010
C         62.23338        66.59366        -1.18054
C         61.05653        67.41995        -0.86887
C         62.32251        69.46892        -1.63032
C         61.08571        68.77930        -1.11985
C         62.01981        70.70468        -2.44746
C         60.84959        71.45371        -2.19680
C         61.65815        73.20010        -3.73844
C         60.65844        72.72203        -2.86297
C         63.48260        63.06526        -0.59893
C         64.50051        64.99227        -1.78805
C         63.44868        64.43622        -1.04329
C         64.45017        66.33466        -2.25862
C         63.33176        67.16903        -1.89795
C         64.28412        69.04267        -3.14614
C         63.30074        68.52611        -2.28630
C         64.15628        70.37713        -3.67006
C         62.99529        71.16762        -3.35878
C         63.82632        72.92992        -4.87564
C         62.82063        72.44604        -4.00418
C         65.47415        66.88504        -3.05793
C         66.38128        68.75010        -4.40116
C         65.39090        68.20888        -3.54608
C         66.26829        70.05770        -4.91472
C         65.12819        70.86626        -4.56857
C         65.98781        72.65114        -6.03628
C         64.97827        72.17014        -5.15875
C         67.24811        70.59167        -5.79585
C         67.10342        71.86953        -6.33498
O         51.46899        48.33009        -1.79930
O         45.32083        67.29272        -0.44044
O         36.96883        72.82252        -1.52645
O         53.76866        49.16160        -0.70565
O         40.90820        42.90821        -3.63097
O         30.83771        65.12163         0.79606
O         50.97899        53.26017         3.97320
O         57.08077        61.44441         3.32081
O         36.06305        55.50675         3.56585
O         61.34625        64.30554         1.29769
O         37.77211        67.18368        -0.47572
O         39.30287        63.30405         3.67606
O         40.07265        69.22401        -0.16358
O         43.77570        72.73230        -0.78187
O         49.61966        69.16491        -1.13442
O         38.09729        52.97458         0.10456
O         54.63057        67.59144         2.31551
O         42.77066        53.95486         0.68806
O         41.29036        46.51118         1.47285
O         36.57964        50.83908         2.58481
O         42.91225        65.26664         0.26390
O         45.07118        69.79170         2.51574
O         50.14556        45.90918        -2.38758
O         46.17887        60.23551         4.37308
O         51.17640        68.75817         2.09350
O         55.11128        57.95115         4.13451
O         57.16630        54.44275         4.09741
O         40.76254        72.15356         2.08797
O         41.74900        56.43194         4.30827
O         46.14961        43.18048        -3.42480
O         41.83785        60.48145         1.05323
O         53.06484        52.01398         3.48144
O         59.57153        61.41080        -0.40725
O         59.33066        60.18419         3.19210
O         35.19737        61.20278         2.97453
O         47.57896        48.08540         1.68837
O         59.75528        69.59592         0.76701
O         46.06068        55.42043         4.47400
O         48.32314        62.49514         0.69738
O         44.78936        35.90736        -2.89107
O         42.05596        70.07865         2.91198
O         44.85907        50.26246        -0.40759
O         25.01472        71.87997        -4.50033
O         49.79015        57.68847         1.46283
O         41.75874        64.30053         3.47463
O         44.81609        47.79983         2.26358
O         40.97853        45.40052        -2.82737
O         47.58131        65.80261        -0.52384
O         54.87604        50.96386         0.43610
O         48.60397        44.02997         0.30463
O         40.01338        66.63408         3.43778
O         49.02542        55.58442         4.56363
O         34.66761        63.83588        -1.11216
O         48.27036        61.54789         4.07184
O         30.47031        70.63935         0.35060
O         42.99449        62.80622         0.43366
O         31.02278        58.27425        -0.80500
O         27.81981        70.67822        -0.25647
O         47.61092        52.82971         3.85371
O         28.77888        62.60388        -2.21973
O         52.57198        57.18781         4.59342
H         53.45646        57.52984         4.87899
O         48.82133        49.14056        -1.63177
H         49.60141        48.84924        -2.16244
O         50.30572        48.18177         1.60303
H         49.42837        48.13866         2.05405
O         53.65970        63.08039        -0.33352
H         53.51460        62.11733        -0.45016
O         38.44980        59.29598         4.39490
H         38.42785        58.38256         4.75257
O         42.50004        48.25308         2.85884
H         42.27385        47.29766         2.95893
O         39.22866        50.91324        -0.89954
H         38.70381        51.69289        -1.19525
O         56.81635        73.83679         0.91147
H         57.62587        73.33373         1.14495
O         59.53230        64.92491        -1.85199
H         60.22617        65.35376        -2.39697
O         63.01304        69.97482        -0.43060
H         63.06762        69.23805         0.21481
O         44.96319        52.40889         3.93861
H         45.87284        52.49880         4.32225
O         45.48797        54.51934         0.97141
H         44.69578        54.29830         0.42022
O         34.66964        52.35064         3.29172
H         35.14404        51.52608         3.55639
O         43.62815        59.64499         4.70527
H         44.51909        59.95471         5.00912
O         37.75366        45.17337         1.08584
H         37.82014        45.90543         1.73653
O         31.84603        69.02135        -2.56207
H         32.66652        68.56655        -2.84849
O         50.12874        63.42500         3.78114
H         49.49694        62.88445         4.31760
O         32.16766        57.43439         2.73548
H         32.95693        57.77218         3.21196
O         38.19697        68.36129         2.90779
H         38.54322        67.79346         3.63908
O         41.08906        50.48115         3.17433
H         41.51024        49.62030         3.43493
H         23.43128        74.78365        -3.93474
H         26.00315        74.85493        -3.66456
H         28.44806        74.80826        -3.29786
H         30.86223        74.89433        -2.63923
H         33.10467        75.06473        -1.68230
H         35.07643        75.25437        -0.21133
H         37.86294        75.36573         0.47949
H         40.23779        75.36367         0.22686
H         42.62879        75.57082         0.55727
H         45.49114        75.34228         0.46195
H         47.68333        75.17004        -0.26808
H         50.11455        75.12343        -0.56320
H         52.58157        75.07080        -0.81618
H         55.00809        75.05609        -0.92119
H         57.26222        74.78067        -1.89448
H         59.35696        74.44463        -3.10303
H         61.52620        74.17823        -4.22434
H         63.70097        73.91757        -5.34406
H         65.87837        73.64986        -6.48269
H         22.39331        69.01364        -2.64985
H         21.25287        71.09445        -3.41593
H         21.32883        73.49274        -4.01618
H         24.76336        64.79775        -1.81523
H         23.57722        66.95361        -2.25985
H         27.13243        60.60970        -0.07336
H         25.81163        62.93782        -0.68073
H         29.21733        56.14450         0.87307
H         28.19363        58.97876         0.86863
H         31.82951        52.24105         0.52822
H         30.58063        54.22186         0.75390
H         34.33894        48.11337        -0.18285
H         33.08703        50.19130         0.21560
H         36.99180        43.96958        -1.23901
H         35.62130        46.06776        -0.62896
H         39.61589        39.95854        -2.62651
H         38.18157        42.12386        -1.81080
H         42.09102        36.43456        -4.72334
H         40.84187        38.29285        -3.77560
H         45.64710        33.26823        -5.78307
H         43.46721        34.40465        -5.56717
H         47.74635        34.34273        -5.06547
H         48.95837        36.38470        -4.30195
H         50.12821        38.36345        -3.48572
H         51.34405        40.34300        -2.68201
H         52.58130        42.34927        -1.72457
H         53.74481        44.43285        -0.92866
H         54.82241        46.05901         0.02450
H         56.25338        47.91718         1.23198
H         57.40583        50.01219         2.43830
H         58.63920        52.24956         2.10245
H         59.78248        54.41985         2.02782
H         60.90083        56.40956         1.62763
H         62.16115        58.45321         1.18245
H         63.34153        60.49141         0.31072
H         64.39349        62.48344        -0.80770
H         65.37712        64.37483        -2.03436
H         66.34128        66.26488        -3.32937
H         67.24396        68.13001        -4.68736
H         68.12445        69.98043        -6.05506
H         67.87350        72.26137        -7.01425
