         421
 CSIRO Nanostructure Databank - Neutral Graphene Oxide Data Set
C          1.30703         1.98916        -0.83230
C          1.25798         3.40600        -0.56060
C          2.47787         1.36724        -1.16048
C          2.34599         4.19660        -0.74138
C          1.20735         6.41379        -1.19240
C          1.25568         7.76875        -1.32279
C          2.30073         5.68229        -0.45720
C          2.40385         8.53767        -0.92514
C          1.28770        10.71667        -1.43101
C          1.30737        12.09947        -1.50200
C          2.41906         9.97976        -0.97876
C          2.47150        12.83413        -1.19950
C          1.27582        15.04230        -1.34330
C          1.28364        16.42439        -1.38736
C          2.48393        14.29468        -1.22214
C          2.49475        17.14516        -1.26852
C          2.53927        18.57544        -1.35468
C          3.70764         2.11127        -1.24611
C          3.63189         3.63024        -1.29168
C          4.92918         1.47108        -1.27885
C          4.85162         4.20744        -0.52526
C          3.62602         6.39913        -0.61973
C          3.61888         7.82319        -0.62866
C          4.84093         5.71687        -0.50611
C          4.82214         8.52215        -0.34261
C          3.58495        10.70135        -0.61598
C          3.64609        12.10866        -0.80338
C          4.73447         9.98067         0.04479
C          4.88777        12.79892        -0.65005
C          3.69993        14.98822        -1.09383
C          3.71528        16.41941        -1.08813
C          4.99434        14.21060        -1.15961
C          4.92022        17.14670        -0.91338
C          3.71366        19.26515        -1.21554
C          4.94803        18.58055        -0.90683
C          6.18645         2.16347        -1.17917
C          6.16514         3.67563        -1.12132
C          7.39576         1.50583        -1.14899
C          7.38467         4.27358        -0.46793
C          6.04716         6.41673        -0.27275
C          6.01659         7.81882        -0.12530
C          7.25915         5.63136         0.19144
C          7.17261         8.52859         0.55253
C          6.05735        10.70045        -0.05479
C          6.07408        12.10989        -0.28473
C          7.24392        10.00639         0.22419
C          7.30532        12.82322        -0.11888
C          6.16532        14.95550        -0.58528
C          6.17302        16.41244        -0.73093
C          7.32035        14.26338        -0.18625
C          7.35779        17.18421        -0.21275
C          6.08153        19.30103        -0.51664
C          7.23070        18.64463         0.19986
C          8.63768         2.21283        -0.95333
C          8.57623         3.62891        -0.60590
C          9.85466         1.54539        -0.93276
C          9.85455         4.41843        -0.64865
C          8.54426         6.41967         0.20272
C          8.50054         7.81643         0.41204
C          9.79601         5.74766         0.05945
C          9.69074         8.53113         0.60206
C          8.47972        10.69057         0.29211
C          8.50729        12.12206         0.16712
C          9.72284         9.96765         0.52455
C          9.72339        12.84420         0.33655
C          8.50648        14.95431         0.21977
C          8.47095        16.40984         0.40048
C          9.72296        14.26215         0.43231
C          9.76300        17.18153         0.54196
C          8.57517        19.30235        -0.03758
C          9.77114        18.61687         0.14526
C         11.10132         2.19288        -0.63578
C         11.10868         3.62883        -0.39581
C         12.27643         1.45871        -0.46009
C         12.27458         4.29895        -0.12677
C         10.98801         6.38246         0.39468
C         10.89217         7.74059         1.06547
C         12.26252         5.70197         0.27692
C         12.20606         8.52504         1.02555
C         10.93533        10.64903         0.53013
C         11.01368        12.10348         0.18046
C         12.22507         9.89014         0.36321
C         12.20150        12.77327         0.83919
C         10.95541        15.00695         0.61330
C         11.01194        16.40115         0.53788
C         12.20192        14.27680         0.90874
C         12.25547        17.10246         0.49439
C         11.04572        19.23008         0.03532
C         12.26089        18.52722         0.26801
C         13.52814         2.09886        -0.20931
C         13.58172         3.59268        -0.40527
C         14.70572         1.41134         0.02786
C         14.78791         4.24075         0.20714
C         13.45587         6.34235         0.58301
C         13.48993         7.77389         0.92622
C         14.78862         5.74402         0.18441
C         14.75590         8.52301         0.71143
C         13.49503        10.66697         0.65067
C         13.49671        12.06254         0.74789
C         14.72666         9.95539         0.68475
C         14.71037        12.80227         0.83783
C         13.49184        14.97768         0.81326
C         13.49173        16.38948         0.61712
C         14.70338        14.24977         0.83994
C         14.72906        17.09076         0.55023
C         13.50102        19.20440         0.23040
C         14.73408        18.52398         0.38014
C         15.96088         2.08552         0.25812
C         15.94730         3.54033         0.40967
C         17.16396         1.40285         0.31769
C         17.20618         4.24061         0.67637
C         15.90155         6.34347         1.04244
C         15.95587         7.83484         0.81712
C         17.21869         5.63432         0.84569
C         17.19668         8.53091         0.81214
C         15.95428        10.67248         0.75166
C         15.94808        12.10025         0.80321
C         17.19093         9.95708         0.76884
C         17.18581        12.81595         0.83170
C         15.94830        14.95884         0.78558
C         15.95564        16.38048         0.65429
C         17.18522        14.24504         0.83812
C         17.20324        17.08361         0.58019
C         15.96471        19.21335         0.36175
C         17.21151        18.53587         0.45488
C         18.42326         2.08316         0.48811
C         18.42613         3.50940         0.65802
C         19.64150         1.39209         0.48181
C         19.66430         4.20059         0.83826
C         18.44338         6.34922         0.96419
C         18.43350         7.81467         0.91178
C         19.65012         5.62205         1.01212
C         19.63052         8.53745         0.83123
C         18.41879        10.67996         0.76590
C         18.42020        12.10711         0.79788
C         19.65077         9.96686         0.72335
C         19.65926        12.81725         0.82361
C         18.41827        14.95658         0.84822
C         18.40389        16.37122         0.70700
C         19.67253        14.24038         0.87910
C         19.70031        17.06318         0.56382
C         18.41630        19.24975         0.47788
C         19.70925        18.57896         0.46010
C         20.88429         2.07217         0.61866
C         20.88459         3.47572         0.80266
C         22.13559         1.35483         0.59521
C         22.21149         4.14765         1.08747
C         20.92867         6.32972         1.17996
C         20.90560         7.83929         1.03089
C         22.19227         5.64234         0.90803
C         22.14309         8.47933         0.53471
C         20.87343        10.69269         0.67636
C         20.89453        12.10264         0.77050
C         22.13346         9.99367         0.41241
C         22.14618        12.80733         0.78767
C         20.91368        14.92105         0.94737
C         20.89343        16.40099         1.22074
C         22.14343        14.22605         0.90633
C         22.19411        17.10150         0.93359
C         20.97197        19.25589         0.77355
C         22.17074        18.55204         0.87242
C         23.36719         2.01179         0.51988
C         23.33211         3.50591         0.27783
C         24.60713         1.34693         0.55005
C         24.65110         4.21750         0.48242
C         23.39043         6.34746         0.77802
C         23.41675         7.78245         0.70296
C         24.64643         5.64393         0.59702
C         24.61509         8.50952         0.63797
C         23.41041        10.68923         0.59894
C         23.39070        12.09922         0.76049
C         24.61662         9.96019         0.64562
C         24.62741        12.79782         0.92975
C         23.40236        14.93938         0.97502
C         23.38806        16.39358         0.95552
C         24.61413        14.23997         1.01148
C         24.65496        17.09737         0.98725
C         23.42397        19.24054         0.89412
C         24.63483        18.55644         0.93527
C         25.84592         2.04472         0.50015
C         25.85407         3.49845         0.44794
C         27.07581         1.36646         0.52678
C         27.10244         4.19808         0.42058
C         25.84297         6.38339         0.52086
C         25.85859         7.79934         0.61532
C         27.09168         5.66867         0.09033
C         27.09527         8.53046         0.64347
C         25.85134        10.66394         0.82000
C         25.83638        12.06866         0.98707
C         27.09754         9.93188         0.80252
C         27.09097        12.76630         1.45081
C         25.88414        14.95519         1.10800
C         25.84931        16.40505         1.10396
C         27.07673        14.25684         1.20230
C         27.11147        17.17750         1.41008
C         25.86923        19.25540         0.80249
C         27.09116        18.58696         0.87110
C         28.31431         2.06086         0.51543
C         28.31159         3.50861         0.47071
C         29.54325         1.37983         0.49330
C         29.56781         4.22864         0.47872
C         28.35181         6.39441         0.46164
C         28.34296         7.79277         0.59544
C         29.56558         5.66444         0.50769
C         29.58108         8.50815         0.65496
C         28.35010        10.65838         0.85118
C         28.36823        12.06789         1.01680
C         29.57502         9.93974         0.71220
C         29.58878        12.78474         0.95237
C         28.37839        14.96925         1.50233
C         28.37635        16.42023         1.10003
C         29.60430        14.22427         1.03292
C         29.54415        17.08446         0.78968
C         28.30341        19.22797         0.57075
C         29.52956        18.52570         0.53396
C         30.78081         2.07425         0.45697
C         30.78517         3.52357         0.50298
C         31.99728         1.38611         0.34487
C         32.03153         4.23112         0.56693
C         30.80169         6.36871         0.59926
C         30.80791         7.79875         0.62158
C         32.02019         5.63804         0.64391
C         32.05245         8.52093         0.54100
C         30.81007        10.64980         0.63610
C         30.81505        12.06637         0.71988
C         32.04600         9.94295         0.49112
C         32.06111        12.75233         0.59298
C         30.78337        14.94579         0.82672
C         30.80418        16.36895         0.71056
C         32.06618        14.21195         0.82607
C         32.00911        17.07336         0.40523
C         30.71638        19.18077         0.19026
C         31.94973        18.48912         0.08753
C         33.24319         2.06948         0.27348
C         33.27846         3.50352         0.45049
C         34.43505         1.36879         0.02493
C         34.51260         4.17195         0.40843
C         33.27648         6.38661         0.79270
C         33.28667         7.83357         0.51687
C         34.57759         5.62341         0.68144
C         34.50524         8.51881         0.27430
C         33.27479        10.64735         0.31014
C         33.25178        12.07716         0.32365
C         34.50290         9.93262         0.14973
C         34.46768        12.82440        -0.18433
C         33.34886        14.97930         0.62300
C         33.25971        16.41562         0.31574
C         34.55230        14.24495         0.25778
C         34.41908        17.07299        -0.18032
C         33.09813        19.15018        -0.36889
C         34.32465        18.46809        -0.55211
C         35.67385         2.04178        -0.10853
C         35.71309         3.46800         0.08628
C         36.87438         1.34714        -0.39174
C         36.94314         4.15405        -0.05862
C         35.76873         6.39142         0.28010
C         35.74367         7.76031         0.12063
C         37.06926         5.63337         0.24521
C         36.96777         8.47743        -0.26986
C         35.75221        10.65688        -0.06965
C         35.77214        12.06845        -0.08073
C         36.95462         9.93263        -0.32858
C         36.99319        12.78233        -0.24125
C         35.83397        15.00412         0.26552
C         35.65844        16.39159        -0.32300
C         37.00086        14.23456        -0.29881
C         36.77380        17.04508        -0.88859
C         35.45156        19.12208        -1.07847
C         36.66714        18.43508        -1.27079
C         38.09348         2.03104        -0.53054
C         38.10970         3.46154        -0.40910
C         39.33340         1.34512        -0.73889
C         39.37081         4.17752        -0.54293
C         38.05841         6.26922        -0.71469
C         38.11319         7.76558        -0.55440
C         39.38599         5.56630        -0.58124
C         39.32960         8.41032        -1.07754
C         38.13278        10.64806        -0.66093
C         38.17779        12.04912        -0.52553
C         39.32603         9.93601        -1.17005
C         39.46472        12.75771        -0.68878
C         38.10260        14.94744        -0.74882
C         38.01945        16.35609        -1.07095
C         39.41677        14.28716        -0.84490
C         39.13498        17.03028        -1.63076
C         37.79467        19.09195        -1.80947
C         39.01037        18.41888        -1.99778
C         40.53915         2.02718        -0.77158
C         40.59338         3.43554        -0.65974
C         41.83208         4.17173        -0.71653
C         40.64113         6.34452        -0.32658
C         40.62532         7.71811        -0.98863
C         41.87659         5.52188        -0.57996
C         41.76357         8.42417        -1.28772
C         40.62966        10.61187        -1.28434
C         40.65436        12.06022        -1.21130
C         41.75915         9.83947        -1.48388
C         41.74584        12.81528        -1.60636
C         40.53817        14.95730        -1.51770
C         40.38922        16.36127        -1.87565
C         41.68725        14.22469        -1.76402
C         41.44269        17.07740        -2.44811
C         40.12627        19.10384        -2.56767
C         41.31376        18.44150        -2.78509
O          7.26969        16.93748        -1.63321
O         39.78313        13.64766         0.42911
O         12.95176         8.29240         2.24520
O         22.02688         9.11575        -0.77626
O         12.00260        13.40859         2.12072
O         39.05644         9.09725        -2.35364
O         21.01815         7.23794         2.36011
O         34.04775         6.00974         2.00203
O         19.90498        17.64880        -0.73091
O         32.87330        14.59467         1.99573
O          5.29386        14.07109        -2.61693
H          5.55202        14.96156        -2.94078
O         27.07570        12.62433         2.91988
H         27.69573        13.31662         3.26963
O         27.05762         5.71840        -1.39617
H         26.18822         5.35823        -1.67461
O         28.47103        14.96424         2.99009
H         27.88928        15.71103         3.29433
O          3.64981         4.05634        -2.67372
H          4.57698         3.98626        -3.00819
O          4.78483         3.75719         0.85257
H          4.66818         2.78215         0.85190
O         15.03447         6.14730        -1.19348
H         14.49919         5.54445        -1.76705
O          6.26187         4.16611        -2.50314
H          7.15793         3.93921        -2.83510
O          8.90934        16.88631         1.71576
O          9.94520         4.76821        -2.09197
H         10.85989         5.08414        -2.25937
O         12.29272         9.57017        -1.07359
H         12.19628        10.43407        -1.54550
O         20.65175        16.55936         2.66333
H         21.38649        16.11763         3.13948
O         13.76368         3.78489        -1.88052
H         14.49946         3.19398        -2.15365
O          6.97445         5.35844         1.61515
H          6.16397         4.78730         1.63733
O         34.22207        12.89580        -1.66280
H         34.20949        11.97082        -1.99286
O          6.91164        18.70212         1.62406
H          7.64182        18.23254         2.09724
O         40.59624         6.63546         1.13093
H         39.70773         6.36679         1.46703
O         22.98861         3.69825        -1.12861
H         23.61226         3.16616        -1.66539
O          4.42535         9.95608         1.48967
H          5.18335         9.48946         1.92652
O         11.34532        12.16897        -1.27877
H         10.51454        11.98961        -1.77089
O         36.18252        15.22461         1.69274
H         37.07031        15.64176         1.71671
O          6.83397         8.44915         1.98471
H          6.91297         7.49847         2.23873
O         15.50882         6.11259         2.42563
H         16.15485         6.56431         3.00767
O         37.66626         5.76131         1.57576
H         36.98386         5.51948         2.23846
O         27.11025        17.33027         2.89777
H         27.78327        18.01239         3.11245
O         10.59980         7.44270         2.46827
H         11.46715         7.47617         2.94184
O          1.96063         5.79510         0.97038
H          1.96503         6.74962         1.19783
O         22.51477         3.91539         2.49552
H         21.88361         4.44029         3.03182
O         37.56399         6.03702        -2.06695
H         38.07819         6.60798        -2.67711
H          0.38298         1.40274        -0.72987
H          0.31525         3.83702        -0.19349
H          2.51118         0.27596        -1.29863
H          0.31010         5.85941        -1.50424
H          0.39070         8.28486        -1.76317
H          0.36575        10.19201        -1.71367
H          0.39740        12.61864        -1.83189
H          0.31362        14.51805        -1.41878
H          0.33984        16.97504        -1.51115
H          1.60010        19.11825        -1.53781
H          4.95417         0.36932        -1.30429
H          3.72045        20.36355        -1.27008
H          7.42400         0.40951        -1.24838
H          6.02784        20.40068        -0.50015
H          9.86832         0.45994        -1.11718
H          8.60515        20.35901        -0.34371
H         12.23848         0.35902        -0.49880
H         11.09822        20.30446        -0.19578
H         14.69675         0.31003         0.03851
H         13.50956        20.29291         0.06948
H         17.17319         0.30920         0.19214
H         15.96239        20.30838         0.25268
H         19.64161         0.29930         0.35121
H         18.39045        20.34771         0.54879
H         22.10958         0.25446         0.62880
H         20.98554        20.35568         0.81496
H         24.62485         0.25179         0.66367
H         23.42688        20.33903         0.83009
H         27.08318         0.26642         0.55455
H         25.85015        20.32961         0.56328
H         29.55037         0.27952         0.48404
H         28.29112        20.29206         0.28975
H         31.98967         0.28866         0.26567
H         30.68938        20.25684        -0.03750
H         34.40090         0.27658        -0.10251
H         33.03735        20.21838        -0.62523
H         36.85099         0.25160        -0.48985
H         35.38372        20.18536        -1.35203
H         39.32134         0.24983        -0.83665
H         37.71417        20.15164        -2.09393
H         41.47781         1.46752        -0.89773
H         42.76506         3.60558        -0.86185
H         42.85168         6.02977        -0.57409
H         42.74329         7.92630        -1.26228
H         42.73248        10.32808        -1.63131
H         42.66446        12.30920        -1.93472
H         42.57026        14.71476        -2.19644
H         42.40485        16.58436        -2.64048
H         40.01824        20.16444        -2.83613
H         42.17046        18.96901        -3.22693
