         651
 CSIRO Nanostructure Databank - Neutral Graphene Oxide Data Set
C          5.98381        31.76004        -0.05970
C          5.96496        33.11080         0.07898
C          8.39340        27.44648         0.37881
C          8.53084        28.85425        -0.15649
C          7.24922        29.64288        -0.15904
C          8.43246        31.73859         0.36543
C          7.21829        30.99848         0.03532
C          8.42439        33.14314         0.44743
C          7.17618        33.88424         0.29554
C          8.34882        36.06666         0.51162
C          7.12509        35.25329         0.43125
C          8.34629        37.47942         0.91330
C         10.72384        23.19204         0.70802
C         10.71498        24.55615         0.99974
C          9.40527        25.29987         1.18872
C         10.85147        27.39105         0.66401
C          9.48315        26.74726         0.74124
C         10.79486        28.88795         0.90377
C          9.66287        29.59192         0.52124
C         10.79237        31.70510         1.08242
C          9.62659        31.01321         0.64741
C         10.76632        33.12176         1.18099
C          9.61906        33.82805         0.82637
C         10.78062        36.04073         1.33210
C          9.65930        35.30125         0.75180
C         10.77023        37.43196         1.31208
C          9.51305        38.14891         1.16791
C         10.80067        40.34114         1.38656
C          9.46752        39.62924         1.50709
C         10.80990        41.73320         1.24576
C         13.18887        18.94445        -0.35757
C         12.86340        20.31376        -0.29101
C         11.83496        21.02908         0.33736
C         13.15535        23.14532         0.90064
C         11.93032        22.45736         0.59310
C         13.13881        24.49585         1.28990
C         11.93089        25.22441         1.25784
C         13.18471        27.43139         1.52942
C         11.85814        26.70126         1.59561
C         13.18917        28.80028         1.53761
C         11.97316        29.57332         1.32556
C         13.24873        31.72691         1.44416
C         12.00254        30.98243         1.34999
C         13.24549        33.12323         1.51548
C         11.92923        33.78045         1.88629
C         13.29474        36.03739         1.66629
C         11.96404        35.30264         1.79506
C         13.24835        37.47653         1.37499
C         12.01762        38.16829         1.42446
C         13.29377        40.29557         1.48375
C         12.00435        39.59357         1.41476
C         13.29401        41.81202         1.31625
C         12.00620        42.49370         1.08451
C         13.23555        44.54566         0.42241
C         12.01537        43.84025         0.73365
C         13.20863        45.89836         0.06768
C         15.86764        15.00186        -1.57316
C         15.81801        16.37563        -1.20592
C         14.58964        17.05124        -1.02870
C         15.74329        19.13666        -0.47503
C         14.49364        18.41733        -0.67058
C         15.78686        20.45519         0.10537
C         14.68909        21.30974         0.10350
C         15.68678        22.98482         1.73986
C         14.43452        22.39759         1.03795
C         15.68357        24.46519         1.91122
C         14.34323        25.21147         1.89868
C         15.71735        27.34718         1.52849
C         14.42622        26.61681         1.25626
C         15.74896        28.81357         1.63960
C         14.44619        29.56108         1.74514
C         15.72557        31.65970         1.42615
C         14.50217        31.00560         1.48491
C         15.69600        33.09428         0.93691
C         14.46212        33.86395         1.36537
C         15.72098        35.98264         0.99057
C         14.51819        35.25559         1.36681
C         15.69141        37.40586         0.95092
C         14.48845        38.15920         1.16591
C         15.76323        40.27749         1.00949
C         14.53187        39.56489         1.17770
C         15.74882        41.70753         0.87891
C         14.53773        42.44771         0.84375
C         15.68744        44.43263        -0.10526
C         14.46491        43.78042         0.40146
C         15.67591        45.92201        -0.04940
C         14.41082        46.61848        -0.49556
C         15.66803        48.83429        -0.27310
C         14.46305        48.10781        -0.24980
C         15.70113        50.20250        -0.58740
C         18.32060        10.82684        -2.50046
C         18.28505        12.17205        -2.07291
C         17.10797        12.92288        -2.04787
C         18.31496        14.97725        -1.33282
C         17.07696        14.29579        -1.64626
C         18.31299        16.37741        -1.05600
C         17.04953        17.08743        -0.99264
C         18.23893        19.19777        -0.44998
C         16.97981        18.44677        -0.63200
C         18.22134        20.44156         0.32179
C         17.00733        21.03847         0.62412
C         18.15138        22.68473         1.92682
C         16.95399        22.26187         1.39403
C         18.12908        24.70833         2.42217
C         16.85002        25.22949         2.00764
C         18.17408        27.34203         1.60856
C         16.88939        26.66230         1.74038
C         18.16356        28.71199         0.94943
C         16.97749        29.55381         1.36749
C         18.31720        31.65358         1.55563
C         16.97877        30.93354         1.42573
C         18.27009        33.16751         1.28439
C         16.96400        33.87574         1.18743
C         18.15137        35.96269         0.38800
C         16.95230        35.30226         0.78254
C         18.05207        37.37925         0.24780
C         16.90115        38.11261         0.69693
C         18.31334        40.23371         0.80038
C         16.96107        39.52852         0.81132
C         18.16822        41.61113         0.12226
C         17.06924        42.43822         0.80244
C         18.27750        44.53525         0.05288
C         17.00050        43.76965         0.09207
C         18.26399        45.92064        -0.07510
C         16.97233        46.64230         0.04083
C         18.28139        48.84399        -0.24643
C         16.97113        48.13359        -0.04505
C         18.23763        50.36014        -0.45417
C         16.94959        50.83472        -1.15281
C         18.14698        53.04652        -1.20879
C         16.94969        52.34713        -1.14365
C         18.19657        54.46790        -1.23905
C         20.87639         6.58957        -3.02088
C         20.85693         8.01665        -2.86562
C         19.60776         8.73120        -2.81452
C         20.78822        10.91709        -2.77614
C         19.53995        10.11589        -2.67300
C         20.79704        12.29270        -2.15611
C         19.53328        12.74456        -1.43518
C         20.73661        14.88486        -0.97455
C         19.53260        14.24953        -1.28415
C         20.76016        16.28089        -0.69464
C         19.54214        17.01771        -0.75466
C         20.74437        19.06667         0.16816
C         19.57712        18.46962        -0.52324
C         20.75902        20.39194         0.55934
C         19.49627        21.14962         0.50940
C         20.69276        23.05803         1.85233
C         19.45268        22.43383         1.33109
C         20.61364        24.46814         2.30333
C         19.35336        25.27068         2.13126
C         20.65368        27.27520         1.24545
C         19.36287        26.64800         1.70824
C         20.63947        28.78598         1.25201
C         19.46709        29.46000         1.06397
C         20.72094        31.62451         0.89632
C         19.39627        30.93845         0.73635
C         20.77534        33.13747         1.00713
C         19.46788        33.87019         0.75972
C         20.71790        35.80453        -0.05812
C         19.42749        35.18520         0.30292
C         20.87722        37.06550        -0.62916
C         19.06453        38.20532        -0.36534
C         20.63398        40.17237        -0.29270
C         19.34639        39.48797        -0.00611
C         20.67011        41.62120         0.07117
C         19.49559        42.35933         0.12404
C         20.70389        44.51597        -0.25408
C         19.50077        43.79814         0.04278
C         20.68053        45.87676        -0.55945
C         19.46940        46.63625        -0.41064
C         20.62772        48.68173        -1.25529
C         19.46288        48.03323        -0.61591
C         20.62966        50.16629        -1.49434
C         19.43748        50.95534        -1.15253
C         20.64519        53.03063        -1.61627
C         19.41686        52.31287        -1.33000
C         20.63861        54.41933        -1.62447
C         19.41465        55.16706        -1.37773
C         20.64768        57.31715        -1.07218
C         19.44342        56.56877        -1.18617
C         20.66474        58.65399        -0.71492
C         23.35921         3.84734        -3.61443
C         22.13288         4.49261        -3.48880
C         23.33063         6.50417        -2.71226
C         22.06112         5.85439        -3.08326
C         23.33123         8.01772        -2.64200
C         22.07249         8.73084        -2.86486
C         23.37775        10.91340        -2.52527
C         22.09106        10.19860        -2.93777
C         23.28543        12.25665        -1.88984
C         22.06996        12.87612        -1.69263
C         23.26726        14.87596        -0.76787
C         21.99271        14.07382        -0.77403
C         23.24382        16.25243        -0.47085
C         21.99322        16.92494        -0.35706
C         23.25511        19.00694         0.50798
C         21.95786        18.25717         0.26457
C         23.19900        20.45132         0.77776
C         21.96169        21.07545         1.00349
C         23.16645        23.13749         1.69043
C         21.91095        22.43261         1.53754
C         23.16863        24.52346         1.96700
C         21.92892        25.26006         2.22249
C         23.11550        27.36190         1.68881
C         21.91058        26.68741         1.84847
C         23.13373        28.78779         1.37198
C         21.92033        29.47093         1.21519
C         23.14996        31.52045         0.59096
C         21.87599        30.90542         1.02355
C         23.14400        32.89806         0.04076
C         21.95697        33.73659         0.29185
C         23.19085        35.72831        -0.62599
C         21.96925        35.06757         0.01076
C         23.25509        37.20456        -0.31799
C         22.04697        37.88455        -0.41381
C         23.21385        40.05001         0.15712
C         21.96100        39.37989        -0.36610
C         23.25370        41.55924         0.25976
C         21.94783        42.31184         0.24917
C         23.25625        44.42599        -0.50138
C         21.99563        43.82592        -0.04039
C         23.21644        45.80271        -0.90049
C         21.89900        46.48419        -1.21600
C         23.10262        48.68421        -1.41834
C         21.94070        47.99637        -1.20202
C         23.16031        50.13555        -1.66188
C         21.91273        50.88977        -1.65568
C         23.12014        53.00688        -2.07062
C         21.87675        52.27204        -1.77095
C         23.17794        54.45332        -1.81394
C         21.89457        55.17062        -1.82014
C         23.21598        57.21891        -1.09436
C         21.91715        56.64698        -1.45694
C         23.25085        58.55303        -0.48334
C         21.91865        59.34039        -0.35642
C         23.26313        61.40232        -0.27331
C         22.03836        60.79242        -0.38939
C         24.58677         4.49067        -3.36073
C         25.82027         6.52398        -2.63174
C         24.62712         5.82728        -2.93205
C         25.85478         7.92175        -2.41417
C         24.64569         8.74181        -2.85292
C         25.88688        10.85177        -2.25026
C         24.54517        10.05903        -2.06666
C         25.74513        12.08736        -1.36537
C         24.49863        12.85153        -1.38098
C         25.74935        14.87958        -0.66085
C         24.49871        14.17619        -0.88986
C         25.70129        16.29589        -0.37040
C         24.49871        16.95839        -0.27657
C         25.76093        19.12128         0.27802
C         24.48011        18.46702        -0.19422
C         25.71552        20.51442         0.56151
C         24.43635        21.17463         0.84860
C         25.61794        23.31257         1.23368
C         24.39218        22.49514         1.29630
C         25.63939        24.51091         2.16333
C         24.37293        25.29214         1.95938
C         25.68066        27.35581         1.55990
C         24.37101        26.67173         1.88434
C         25.63267        28.85969         1.64205
C         24.41660        29.47868         1.37961
C         25.72482        31.56238         0.69748
C         24.41878        30.91815         1.07652
C         25.73628        32.82537        -0.10539
C         24.44832        33.56361        -0.30541
C         25.70499        35.69421        -0.34908
C         24.49516        35.02692        -0.34541
C         25.72391        37.14344        -0.34189
C         24.52184        37.85237        -0.23572
C         25.82833        40.01991        -0.03711
C         24.52409        39.28881         0.13291
C         25.82446        41.53356        -0.17937
C         24.55087        42.31600         0.03831
C         25.68820        44.34187        -0.89460
C         24.50253        43.72880        -0.45208
C         25.63853        45.73501        -1.48528
C         24.38976        46.49183        -1.12227
C         25.67523        48.67140        -1.33434
C         24.38035        47.96292        -1.19510
C         25.66818        49.99329        -2.06940
C         24.38136        50.77553        -1.83165
C         25.65519        52.99937        -1.79574
C         24.43237        52.22913        -2.09037
C         25.64427        54.38171        -1.69640
C         24.38598        55.12509        -1.69683
C         25.66731        57.21826        -1.14150
C         24.40058        56.53959        -1.35021
C         25.70113        58.57298        -0.83324
C         24.51044        59.30940        -0.55226
C         24.48821        60.67977        -0.31585
C         27.01653         8.59160        -2.00185
C         28.27069        10.66924        -1.51105
C         27.09324        10.00829        -1.84425
C         28.33108        12.10466        -1.33101
C         27.05014        12.79660        -1.02151
C         28.20926        15.02349        -1.07762
C         26.97786        14.24116        -0.83867
C         28.21434        16.50619        -0.70934
C         26.98983        16.92823         0.12032
C         28.21969        19.15213         0.25550
C         26.98116        18.44285         0.19952
C         28.17567        20.55859         0.42575
C         26.94143        21.22275         0.61195
C         28.17253        23.41853         1.15322
C         26.90666        22.68984         0.80899
C         28.14241        24.45914         2.28414
C         26.91327        25.31867         2.13024
C         28.14447        27.45366         2.43907
C         26.90756        26.67215         2.13487
C         28.15612        28.94732         2.03261
C         26.90120        29.55740         1.49652
C         28.21484        31.36724         0.33712
C         26.95656        30.78320         0.86172
C         28.22355        32.82395        -0.13579
C         26.98496        33.60286        -0.10869
C         28.23214        35.67938        -0.45546
C         26.97692        34.97174        -0.29122
C         28.23176        37.07986        -0.59949
C         26.98691        37.83864        -0.49455
C         28.14315        39.94499        -1.07855
C         26.96883        39.22835        -0.56794
C         28.11921        41.44577        -1.20750
C         26.93322        42.21747        -0.86523
C         28.18801        44.31996        -1.18996
C         26.93172        43.61211        -1.02501
C         28.21065        45.77511        -1.59650
C         26.92402        46.51978        -1.34892
C         28.17766        48.64173        -1.29430
C         26.93544        47.87998        -1.38462
C         28.16104        50.02779        -1.33754
C         26.95919        50.77115        -1.80499
C         28.07237        52.97302        -0.97531
C         26.93571        52.25781        -1.67907
C         28.21570        54.37427        -1.60930
C         26.89197        55.11488        -1.51754
C         26.88605        56.46284        -1.28956
C         29.50759        12.81291        -1.29857
C         30.76151        15.05541        -1.06898
C         29.51322        14.29184        -1.27406
C         30.76643        16.36289        -0.62143
C         29.51101        16.95382         0.00632
C         30.70359        19.15297         0.07257
C         29.50571        18.47318         0.09097
C         30.73984        20.63592         0.08498
C         29.43092        21.35076         0.29611
C         30.66115        23.15478         1.68033
C         29.46242        22.74145         0.87191
C         30.64995        24.56787         2.17439
C         29.42457        25.25300         2.28460
C         30.63533        27.22031         2.88285
C         29.39698        26.63631         2.55887
C         30.62682        29.31334         2.30294
C         29.42397        29.68805         1.72664
C         30.70156        31.44539         0.54050
C         29.49036        30.80085         0.82288
C         30.72265        32.72499        -0.23909
C         29.49052        33.55413        -0.26157
C         30.71783        35.63857        -0.87965
C         29.47232        34.91823        -0.51185
C         30.70147        37.10612        -0.82455
C         29.48980        37.77634        -0.72252
C         30.73393        39.97972        -0.97769
C         29.46767        39.21210        -1.07762
C         30.64883        41.44885        -0.75380
C         29.44267        42.20928        -1.18162
C         30.65663        44.38599        -0.85162
C         29.40310        43.66879        -1.02184
C         30.63951        45.81830        -0.87028
C         29.43222        46.52183        -1.11353
C         30.62575        48.66147        -0.83402
C         29.40992        47.92142        -1.06852
C         30.58304        50.07172        -0.83579
C         29.37204        50.78545        -1.06643
C         29.34509        52.17852        -0.97789
C         31.97614        17.09343        -0.46241
C         33.18698        19.11322         0.21705
C         31.97861        18.44404        -0.05627
C         33.25833        20.48403         0.59830
C         32.06421        21.39077         0.32262
C         33.23545        23.16285         1.78153
C         31.95017        22.44771         1.42366
C         33.11833        24.64411         1.89980
C         31.87696        25.27448         2.27561
C         33.14743        27.51809         2.70909
C         31.88093        26.65388         2.60083
C         33.06792        28.91523         2.04117
C         31.90044        29.68079         1.78237
C         33.20761        31.47502         0.74793
C         31.94710        30.87124         0.97814
C         33.31127        32.75025         0.00120
C         32.04692        33.41010        -0.47508
C         33.26948        35.68316        -0.43172
C         32.09050        34.88527        -0.79442
C         33.29293        37.12035        -0.75619
C         31.95504        37.85249        -1.04777
C         33.25323        40.07761        -1.03279
C         31.92835        39.33075        -0.91385
C         33.18794        41.52056        -0.55946
C         31.89584        42.22647        -0.48913
C         33.06921        44.42684        -0.37126
C         31.86468        43.70459        -0.60928
C         33.05963        45.81243        -0.39021
C         31.85541        46.54383        -0.62952
C         31.83262        47.95086        -0.62660
C         34.42655        21.02404         1.09881
C         35.89473        23.03239         1.76101
C         34.53572        22.40846         1.62631
C         36.10310        24.37382         1.52512
C         34.17859        25.48180         1.62566
C         35.62938        27.42210         2.17714
C         34.37149        26.79611         2.14127
C         35.52347        28.88162         2.21752
C         34.30711        29.53822         1.79653
C         35.61758        31.60963         1.35440
C         34.36965        30.88967         1.30721
C         35.70114        32.99256         0.89924
C         34.55608        33.57696         0.14738
C         35.58675        35.81305         0.36861
C         34.45261        35.06677         0.06601
C         35.51687        37.30261         0.53958
C         34.42129        37.96292        -0.28446
C         35.60678        40.10325        -0.04024
C         34.41112        39.32528        -0.39140
C         35.57115        41.50633        -0.10080
C         34.34476        42.21045        -0.26661
C         34.33510        43.69697         0.03638
C         37.09868        25.29555         1.95376
C         38.21987        27.37139         1.99985
C         36.94893        26.71961         2.03151
C         38.52809        28.69665         2.42829
C         36.59071        29.72762         2.50243
C         38.11180        31.67569         1.70890
C         36.73937        31.02957         1.96355
C         37.99715        33.20047         1.91349
C         36.83152        33.73394         1.09228
C         38.14243        35.91105         0.70663
C         36.87154        35.11954         0.57165
C         38.04586        37.37290         0.69257
C         36.85007        38.02311         0.45028
C         36.79801        39.43272         0.30310
C         39.49387        29.60265         2.07084
C         40.57195        31.86870         2.18711
C         39.32815        31.06276         2.48583
C         40.54234        33.17621         1.86459
C         39.30871        33.91469         1.62306
C         39.34399        35.21075         1.22078
O         21.84362        56.20678        -2.86207
O         23.76061        39.46249         1.37324
O         17.62375        33.77492         2.49148
O         20.64911        12.11867        -3.59825
O         21.35750        39.96104        -1.55939
O         22.56018        58.67845         0.79951
O         32.83624        37.41416        -2.12669
O         23.00808        10.80780        -3.90926
O         23.75623        52.62150        -3.33856
O         18.11994        23.46630         3.08294
O         14.74397        22.14483         2.46437
O         24.05008        42.05126         1.37236
O         13.79675        21.17623        -0.94642
O         37.75792        35.30107        -0.61458
O         27.96939        28.51465         3.42154
O         12.64033        35.81963         2.98471
O         27.32129        51.64110        -2.96248
O         26.30111        11.99334        -0.02750
O         21.31514        24.85805         3.51230
O         16.34601        43.74870        -1.23788
O         33.85015        22.53194         2.96215
O         35.12500        24.99310         0.72699
O         13.41486        41.20837         2.64135
O         28.71995        14.82653        -2.44406
O         19.46586        22.45654        -0.14713
O         31.02079        41.75773         0.64092
O         28.15339        31.66918        -1.08387
O         15.15402        29.17556         2.96812
O         25.54598        24.00970         3.49744
O         26.00080        11.21007        -3.58192
O         30.01289        21.22677        -1.04852
O         26.09023        23.46238        -0.14143
O         22.97519        31.73359        -0.86356
O         25.09738        31.79486         2.03091
O         22.66644        18.22125         1.57552
O         28.68979        39.36401        -2.31464
O         28.97165        23.79819        -0.00972
O         23.28094         7.20813        -1.42341
O         30.63466        28.50713         3.44255
O         28.81307        41.83596        -2.43377
O         25.07151        48.63765        -0.01340
O         19.08016        19.26686        -1.65477
O         19.83392        37.60532        -1.36424
O         20.32873        49.21177        -2.61570
O         31.41430        32.63057        -1.53167
O         34.31362        32.80966        -1.07694
O         16.17593        46.30130         1.26441
O         17.76124        48.57935         1.11609
O         25.10498        32.85569        -1.42429
O         31.13027        22.08824         2.57394
O         26.26985        40.86983         1.06765
O          9.29039        35.78833        -0.58589
O         31.43950        35.16173        -2.05635
O         21.96727        43.29169         1.32428
O         37.56898        29.19815         3.34879
O         11.36842        26.82608         2.95359
H         12.08874        26.50185         3.54142
O         17.49924        42.71232         2.16797
H         16.77844        43.18766         2.63358
O         19.57161        12.16597        -0.09919
H         20.31267        12.60115         0.39702
O         18.73813        31.51184         2.93659
H         18.14947        32.09246         3.47282
O         18.99616        31.09653        -0.65047
H         19.60064        30.56868        -1.21277
O         27.65013        53.14581         0.40881
H         28.41765        53.46131         0.92983
O          8.98860        39.78315         2.85906
H          9.67811        39.44470         3.46709
O         33.52586        40.12836        -2.46652
H         33.47635        39.19798        -2.79497
O         28.34123        45.73400        -3.06229
H         27.45372        45.49603        -3.42162
O         11.35469        27.20519        -0.69181
H         10.68409        27.61135        -1.29497
O         38.39919        31.41675         0.31903
H         37.74663        31.89935        -0.23316
O         14.37365        46.45522        -1.96074
H         13.49852        46.76433        -2.27582
O          8.95401        28.68940        -1.56918
H          8.93557        29.57865        -1.98410
O         37.67311        33.45149         3.30335
H         38.25359        32.85580         3.84375
O         17.76753        41.33385        -1.23041
H         17.38607        42.14872        -1.62960
O         29.54098        16.42011         1.35256
H         30.33389        16.78027         1.80108
O         11.70242        33.45865         3.29219
H         12.23666        34.10200         3.81372
O         28.63862        54.25344        -2.96868
H         28.12189        53.53704        -3.39798
O         17.03826        50.38818        -2.54607
H         16.27644        50.76133        -3.03658
O         35.07868        37.49197         1.93885
H         35.16505        38.44844         2.14393
O         14.00381        25.42433         3.30233
H         14.06915        24.55919         3.76121
O         15.63251        33.00522        -0.52551
H         14.85264        32.46097        -0.76381
O         25.85596        27.13745         0.10347
H         25.08316        27.52243        -0.36199
O         25.52248        45.50160        -2.95638
H         24.60444        45.20497        -3.14308
O          8.32431        24.62641         0.54463
H          8.44756        24.70302        -0.42354
O         14.40335        26.42810        -0.19806
H         13.49862        26.63376        -0.53189
O         24.33657         9.79265        -0.68035
H         24.99488         9.13265        -0.37544
O         35.48703        44.31998        -0.54185
H         35.43767        44.21502        -1.51411
O         18.26202        50.99165         0.84957
H         17.90194        50.33226         1.49255
O         24.31243        18.92659        -1.57568
H         25.14088        18.73467        -2.06539
O         33.39906        27.75626         4.11750
H         32.57287        28.12795         4.49835
O         28.11844        17.25717        -1.93454
H         28.51198        16.69998        -2.64810
O         20.71468        26.91355        -0.19241
H         21.56389        27.25230        -0.54988
O         28.09743        23.73407         3.52850
H         27.13886        23.74466         3.84215
O         21.02573        33.35794         2.44619
H         20.33044        32.85261         2.93406
O         32.40003        22.10821        -0.88651
H         31.57930        22.14470        -1.43706
O         27.11007        16.41677         1.46992
H         26.34139        16.73542         1.98690
O         17.97453        28.42832        -0.47851
H         18.68974        27.80376        -0.74036
O         23.00583        35.63332        -2.07645
H         23.18507        34.70651        -2.34660
O         25.65679        49.64642        -3.47481
H         25.98737        50.43249        -3.96731
O         24.80831         9.00330        -4.24698
H         25.31775         9.87014        -4.32676
O         18.78476        40.36330         2.15374
H         18.34163        41.14604         2.56335
O         21.87647        13.51299         0.60351
H         22.71483        13.03923         0.79961
O         21.71394        46.15514        -2.64974
H         21.05832        46.78786        -3.01890
O         39.11006        31.20627         3.90924
H         38.48918        30.48614         4.18265
H          5.05048        31.21073        -0.25229
H          5.01412        33.65850        -0.00022
H          7.39839        26.97468         0.39170
H          6.31883        29.11113        -0.41266
H          6.15077        35.76556         0.43485
H          7.38383        38.00977         0.97448
H          9.76504        22.68026         0.53828
H          9.17823        25.29016         2.29091
H          8.71446        40.13495         0.85020
H          9.84611        42.26022         1.17491
H         12.40346        18.21222        -0.11622
H         10.90977        20.51590         0.63909
H         11.05915        44.37481         0.62517
H         12.24521        46.43139         0.09204
H         14.92448        14.47367        -1.78006
H         13.65885        16.48116        -1.16876
H         13.52948        48.66916        -0.42385
H         14.74307        50.72466        -0.74900
H         17.37110        10.30117        -2.68939
H         16.17083        12.46322        -2.39951
H         15.99340        52.89330        -1.16640
H         17.26647        55.03913        -1.09778
H         19.91970         6.07745        -3.20336
H         18.67573         8.14613        -2.79994
H         18.49321        57.08086        -0.96962
H         19.71425        59.19348        -0.58045
H         23.37562         2.79962        -3.94645
H         21.20428         3.95317        -3.72461
H         23.31255        62.50043        -0.24548
H         21.13256        61.39286        -0.55813
H         25.52702         3.94313        -3.51800
H         26.76381         5.95657        -2.58693
H         26.67066        59.09008        -0.77248
H         25.43477        61.23858        -0.29150
H         27.90668         7.99023        -1.75059
H         29.21366        10.10111        -1.45054
H         29.00327        54.95894        -1.06538
H         27.84150        56.99569        -1.16476
H         30.46934        12.29053        -1.41689
H         31.71351        14.57239        -1.34168
H         31.50531        50.63920        -0.64079
H         30.28046        52.71237        -0.74618
H         32.93377        16.60541        -0.70091
H         34.11846        18.52508         0.21582
H         33.99148        46.36108        -0.18972
H         32.76681        48.50879        -0.46476
H         35.31286        20.37451         1.18968
H         36.64921        22.44090         2.30198
H         36.48163        42.07942         0.12651
H         34.44464        43.81582         1.15122
H         38.08799        24.89103         2.22160
H         39.06022        26.77086         1.61631
H         38.96858        37.96365         0.80415
H         37.72415        40.01666         0.41370
H         40.25702        29.34366         1.32386
H         41.54154        31.36533         2.32015
H         41.48743        33.71797         1.70077
H         40.31444        35.72146         1.10820
