         344
 CSIRO Nanostructure Databank - Neutral Graphene Oxide Data Set
C          1.16553         3.42794        -0.33849
C         -0.01602         4.10924        -0.32438
C          1.13529         6.26372        -0.12171
C         -0.02886         5.53472        -0.23116
C          1.05839         7.77846        -0.16407
C         -0.04554         8.36699         0.68105
C          1.16054        10.47948         0.87894
C         -0.00159         9.66766         1.08907
C          1.13110        11.93959         1.30174
C         -0.07798        12.67893         0.79858
C          1.14905        14.80620         0.70298
C         -0.05484        14.01910         0.57914
C          1.16574        16.21875         0.51371
C         -0.07351        16.97481         0.31223
C          1.15142        19.12908         0.28026
C         -0.10290        18.30940         0.11204
C          1.20892        20.50228        -0.36054
C          0.07375        21.18175        -0.80984
C          1.32777        23.27574        -1.00942
C          0.13691        22.53034        -1.16352
C          1.38749        24.69820        -1.32704
C          0.25767        25.40394        -1.77686
C          1.49177        27.50199        -1.84996
C          0.30631        26.77130        -2.04480
C          1.54527        28.91884        -2.08174
C          3.60581         3.43132        -0.28867
C          2.42463         4.13151        -0.23815
C          3.61868         6.29796        -0.07900
C          2.40833         5.58771        -0.11935
C          3.60845         7.76236        -0.02733
C          2.36935         8.47660         0.08668
C          3.58567        10.64492         0.35820
C          2.34297         9.84942         0.44267
C          3.67484        11.93133         1.17888
C          2.40098        12.71941         1.03291
C          3.65382        14.89812         1.08214
C          2.38816        14.08384         0.90031
C          3.68355        16.14273         0.17148
C          2.38491        16.90313         0.31821
C          3.72614        19.10247        -0.04798
C          2.36458        18.29135        -0.06516
C          3.63722        20.52389         0.12589
C          2.44538        21.21024        -0.26217
C          3.75237        23.31914        -0.41235
C          2.48568        22.61279        -0.53292
C          3.80180        24.73152        -0.74172
C          2.62402        25.40514        -1.15986
C          3.85701        27.55352        -1.16964
C          2.66368        26.81941        -1.40069
C          3.88454        28.97568        -1.38933
C          2.69311        29.62719        -1.86004
C          6.03825         3.50027        -0.97807
C          4.93690         4.07935        -0.07029
C          6.09169         6.27141        -0.15090
C          4.88338         5.59646        -0.14443
C          6.11435         7.71599         0.27872
C          4.82234         8.44397         0.03568
C          6.15621        10.59834         0.35034
C          4.87105         9.90591         0.08774
C          6.13754        12.01250         0.60628
C          4.93014        12.70887         0.86175
C          6.13596        14.83288         0.84866
C          4.92865        14.11053         0.90748
C          6.14095        16.29246         0.79095
C          4.92786        16.97962         0.46694
C          6.13255        19.12120         0.60808
C          4.94006        18.36785         0.35866
C          6.11765        20.54886         0.64154
C          4.79523        21.29825         0.68799
C          6.23993        23.31131        -0.09369
C          4.88303        22.66978         0.04777
C          6.19532        24.81798        -0.09063
C          5.00926        25.46948        -0.51857
C          6.21762        27.62118        -0.43239
C          5.02578        26.88614        -0.70906
C          6.23704        29.05319        -0.68524
C          5.06104        29.69101        -1.15450
C          8.55131         3.49275        -0.90566
C          7.37533         4.16621        -0.72447
C          8.54822         6.29330        -0.42663
C          7.35942         5.59483        -0.39813
C          8.57200         7.77058        -0.45101
C          7.29665         8.50116        -0.24532
C          8.60925        10.61887         0.11578
C          7.34599         9.93628         0.11193
C          8.60323        12.02717         0.37676
C          7.37289        12.71873         0.57991
C          8.60160        14.83173         0.87590
C          7.37389        14.13129         0.78302
C          8.59006        16.25830         1.35566
C          7.33764        17.00303         0.95187
C          8.56793        19.17279         0.96420
C          7.35871        18.42666         0.84683
C          8.55847        20.57300         0.89933
C          7.30967        21.25635         0.79693
C          8.58670        23.47006         0.79148
C          7.25171        22.76469         0.91538
C          8.59572        24.84500         0.57900
C          7.36286        25.54700         0.20589
C          8.55229        27.76150         0.50049
C          7.35986        26.95860         0.04756
C          8.62812        29.14095        -0.11729
C          7.43751        29.76728        -0.55022
C         11.02678         3.46811        -0.71209
C          9.85068         4.14892        -0.80676
C         11.04468         6.30722        -0.26783
C          9.82139         5.65902        -0.92936
C         11.03926         7.81315        -0.39194
C          9.85848         8.50230        -0.33819
C         11.06866        10.65392        -0.01211
C          9.82864         9.94572        -0.13738
C         11.06620        12.04754         0.30592
C          9.82725        12.73815         0.43952
C         11.05244        14.86593         0.70174
C          9.81488        14.14784         0.69793
C         11.00912        16.31084         0.74334
C          9.85576        16.99906         1.00488
C         11.05755        19.23628         0.80811
C          9.86077        18.47627         1.31684
C         11.06691        20.60839         0.84381
C          9.80625        21.33496         0.97330
C         11.09592        23.46086         1.18833
C          9.80052        22.72280         0.95776
C         11.07297        24.90530         0.75812
C          9.85157        25.58714         0.59440
C         11.06453        27.71356         0.40572
C          9.85605        27.00055         0.42100
C         11.07494        29.14564         0.16682
C          9.84325        29.81038        -0.13187
C         13.61290         3.48663        -0.88052
C         12.34654         4.14052        -0.37666
C         13.60811         6.34033        -0.45161
C         12.32717         5.62429        -0.80488
C         13.59292         7.76231        -0.27207
C         12.33633         8.54094        -0.61115
C         13.50120        10.63117         0.20097
C         12.31341         9.96574        -0.10864
C         13.50374        12.01045         0.53260
C         12.29721        12.74287         0.51809
C         13.51077        14.92257         0.65528
C         12.28462        14.18533         0.65440
C         13.53371        16.31303         0.42502
C         12.24508        17.01990         0.33866
C         13.55384        19.21096         0.35397
C         12.25845        18.51701         0.36031
C         13.55314        20.61959         0.40304
C         12.31664        21.33373         0.61608
C         13.54762        23.45218         0.58296
C         12.32473        22.72384         0.70135
C         13.53758        24.86389         0.70860
C         12.31226        25.59826         0.73414
C         13.51718        27.76798         0.62076
C         12.31504        27.03356         0.59217
C         13.52867        29.17534         0.33675
C         12.28481        29.83314         0.11574
C         16.07552         3.53476        -0.99131
C         14.80171         4.17702        -0.78217
C         16.05459         6.29717        -0.38470
C         14.81206         5.61523        -0.48943
C         16.06794         7.79844        -0.43054
C         14.76827         8.44360        -0.04457
C         16.04197        10.58308         0.15972
C         14.74976         9.83987         0.52476
C         16.05507        12.02053         0.60956
C         14.77087        12.66577         0.92254
C         16.02456        14.91827         0.66938
C         14.77945        14.24591         0.92692
C         15.99924        16.25006        -0.02294
C         14.73720        17.03412         0.26188
C         15.99697        19.17155         0.02842
C         14.75080        18.45722         0.21004
C         15.98888        20.60687        -0.00522
C         14.79086        21.33032         0.22959
C         15.98670        23.50306         0.16597
C         14.78878        22.76691         0.33945
C         16.06494        24.89610         0.43354
C         14.81796        25.56513         0.87525
C         16.06037        27.85298         0.81355
C         14.77800        27.09802         0.95612
C         16.00722        29.26989         0.39653
C         14.74226        29.88998         0.25130
C         18.54610         3.55874        -1.05518
C         17.27430         4.21394        -0.85321
C         18.51487         6.35374        -0.45998
C         17.28014         5.63400        -0.55043
C         18.53598         7.75882        -0.09706
C         17.32700         8.43403         0.09519
C         18.54543        10.62557         0.35032
C         17.29380         9.83513         0.66722
C         18.49128        11.98743         0.24523
C         17.24050        12.70378         0.53615
C         18.56533        14.92483         0.51050
C         17.28363        14.17180         0.76877
C         18.50006        16.38735         0.27230
C         17.26906        17.05154         0.15246
C         18.50261        19.14723        -0.41843
C         17.21293        18.45752        -0.04153
C         18.42109        20.65205        -0.42454
C         17.22592        21.31851        -0.28294
C         18.42362        23.58506        -0.64917
C         17.15509        22.79828        -0.40509
C         18.46944        24.99862        -0.19657
C         17.27260        25.62413         0.26018
C         18.51338        27.83604         0.07099
C         17.34762        27.07489         0.55412
C         18.45136        29.25502         0.00323
C         17.19985        29.94144         0.13375
C         19.71690         4.24850        -0.96626
C         20.95569         6.35043        -0.50517
C         19.74253         5.65991        -0.65100
C         20.97569         7.71034        -0.14503
C         19.80446         8.42761         0.06422
C         21.02922        10.67564         0.07635
C         19.84498         9.87122         0.54711
C         20.95539        11.97291        -0.24577
C         19.66165        12.74657        -0.35938
C         20.89893        14.96056        -0.17519
C         19.77511        14.21013         0.04271
C         20.91710        16.38140         0.04434
C         19.75002        17.09488         0.22155
C         20.95132        19.34810         0.08417
C         19.67751        18.60607         0.41677
C         20.94483        20.58052        -0.44417
C         19.69789        21.32262        -0.75774
C         20.95398        23.61348        -0.64830
C         19.71761        22.84717        -0.85849
C         20.92083        24.95435        -0.42886
C         19.69484        25.69386        -0.26095
C         20.86728        27.90191        -0.53964
C         19.71347        27.14920        -0.22003
C         20.81799        29.29739        -0.57619
C         19.62815        29.97338        -0.32577
O          7.72685         8.24418        -1.60903
O          4.13630        10.64337        -0.98377
O          3.07804        18.60480        -1.28408
O         12.04457        17.76614        -0.91794
O         14.79836        26.28251         2.16484
O         18.18275        14.55005         1.90892
O         19.72845        22.00811        -2.05701
O         14.74452        13.41322         2.14783
O         16.97067        27.53654         1.90323
O         17.47818        23.34664        -1.74067
O         19.32176        12.77836        -1.79230
H         19.96753        13.36418        -2.24191
O         12.42670         8.62883        -2.09436
H         11.60878         9.07026        -2.41200
O          0.69408         8.09102        -1.56625
H          0.79809         9.05969        -1.68368
O          1.28005        19.36968         1.72266
H          0.54725        19.95866         1.99936
O         10.89757         6.06662         1.16418
H         11.54402         6.63124         1.63877
O          9.95814        18.54517         2.78805
H          9.30976        17.88368         3.13967
O          6.32299         7.70384         1.73730
H          5.61945         7.14878         2.13547
O         11.23708        23.50795         2.65997
H         12.05923        24.00666         2.85839
O          3.59816        15.36646         2.45839
H          4.46116        15.77945         2.67492
O         16.10083        10.63141        -1.29491
H         16.89143        11.15637        -1.55037
O         15.96095        15.94197        -1.48394
H         15.87676        16.79855        -1.95633
O         14.63972         9.67332         1.96584
H         15.54226         9.53675         2.34636
O          1.02123        11.89789         2.78955
H          0.91450        12.82652         3.09146
O         19.36033        18.84723         1.81019
H         19.97911        18.32791         2.36400
O          8.33378        27.99498         1.94018
H          9.08393        28.53890         2.26258
O          6.74678        22.90780        -1.40928
H          6.12809        23.25204        -2.08753
O         18.79407        18.75846        -1.79887
H         18.38098        19.41561        -2.39790
O          5.68131         3.70361        -2.35365
H          5.58002         4.66682        -2.50373
O         12.31921         5.64734        -2.24823
H         12.32820         6.59372        -2.52803
O          3.78394        11.50619         2.57275
H          2.86990        11.50434         2.95322
O          3.77746        15.69842        -1.20599
H          3.68668        16.49968        -1.76931
O          4.50648        21.53740         2.10858
H          5.20931        22.15719         2.43583
O          6.74860        23.09506         2.24938
H          7.46504        22.91341         2.89448
O          8.53352        16.18729         2.84499
H          9.21921        15.54433         3.12879
O         12.48133         4.02675         1.07170
H         11.66722         4.41974         1.46948
O          9.84496         6.00618        -2.33938
H          9.05207         5.60996        -2.75730
O         17.25317         9.71143         2.12378
H         18.17996         9.49913         2.40940
O         19.98168         9.76984         2.01946
H         20.15322        10.67418         2.36111
O         16.14018         8.03984        -1.91065
H         16.03651         9.02023        -2.03030
O          5.34885         3.74438         1.29569
H          4.61411         3.98618         1.89743
H          1.18462         2.33207        -0.42606
H         -0.97112         3.57153        -0.40417
H         -0.99803         6.05020        -0.27853
H         -0.95407         7.77385         0.86014
H         -0.85997        10.10309         1.62164
H         -1.02163        12.12491         0.68666
H         -0.98772        14.51140         0.26893
H         -1.02334        16.42215         0.28995
H         -1.06889        18.81644        -0.03126
H         -0.88897        20.65747        -0.89187
H         -0.77574        23.01303        -1.53647
H         -0.69763        24.88153        -1.91976
H         -0.59787        27.29066        -2.39375
H          0.63687        29.42780        -2.43616
H          3.58143         2.33664        -0.40300
H          2.72054        30.71265        -2.03506
H          6.11532         2.39711        -0.81713
H          5.08215        30.77520        -1.34136
H          8.52901         2.41005        -1.10829
H          7.47229        30.82331        -0.85946
H         11.00255         2.36617        -0.66692
H          9.87941        30.86200        -0.45566
H         13.61976         2.40745        -1.09965
H         12.28588        30.91086        -0.10470
H         16.08690         2.46367        -1.24500
H         14.70738        30.96050         0.00027
H         18.55062         2.48406        -1.28993
H         17.16769        31.01518        -0.10481
H         20.67681         3.73460        -1.12296
H         21.90505         5.81632        -0.65266
H         21.95179         8.20012        -0.02217
H         22.01737        10.19069         0.09897
H         21.87971        12.49263        -0.54403
H         21.83306        14.48971        -0.51628
H         21.88505        16.89513        -0.03203
H         21.91660        18.87890         0.33070
H         21.89947        21.07612        -0.67474
H         21.91965        23.10664        -0.77951
H         21.87410        25.49392        -0.34660
H         21.81460        27.39824        -0.77248
H         21.72628        29.86380        -0.82521
H         19.59127        31.07053        -0.38273
