         276
 CSIRO Nanostructure Databank - Neutral Graphene Oxide Data Set
C        -10.89062         0.86146         1.11071
C         -9.82379         1.58482         0.44189
C         -8.53279         0.87121         0.25044
C         -7.55202         1.42510        -0.74249
C         -6.30526         0.67325        -1.08016
C         -5.11893         1.46102        -1.61388
C         -3.86387         0.69585        -2.12297
C         -2.50895         1.34421        -1.71189
C         -1.34992         0.70349        -2.57392
C          0.04013         1.44383        -2.38965
C          1.37190         0.67637        -2.30519
C          2.58473         1.38311        -1.71024
C          3.76541         0.62958        -1.26211
C          4.99341         1.37447        -0.96405
C          6.30344         0.67580        -0.74822
C          7.35845         1.35371         0.09463
C          8.51381         0.54074         0.59618
C          9.77628         1.13567         1.20392
C         10.96445         0.67767         0.36362
C         -9.96374         2.87662         0.03177
C         -8.84455         3.64263        -0.56158
C         -7.57439         2.91176        -0.96371
C         -6.26775         3.67205        -0.74013
C         -5.06782         2.94324        -1.36103
C         -3.73059         3.67854        -1.22263
C         -2.50435         2.88327        -1.68518
C         -1.32671         3.55340        -1.71065
C         -0.00182         2.91755        -2.04585
C          1.25982         3.65219        -1.60216
C          2.51567         2.85836        -1.34533
C          3.58540         3.45322        -0.48827
C          4.95989         2.84322        -0.56435
C          5.76478         3.15043         0.75725
C          7.24165         2.82472         0.49415
C          8.28800         3.14675         1.53185
C          9.52230         2.58891         1.57022
C         -8.68850         5.04969        -0.25188
C         -7.57314         5.79884        -0.67420
C         -6.39275         5.10555        -1.36971
C         -5.08389         5.87153        -1.22792
C         -3.86800         5.12704        -1.87942
C         -2.52982         5.89737        -1.66270
C         -1.21933         5.07604        -1.68469
C         -0.18982         5.52107        -0.65928
C          1.14884         5.01039        -0.94251
C          2.35435         5.58840        -0.23026
C          3.58147         4.75317        -0.09961
C          4.87305         5.52715         0.25985
C          6.09444         4.64210         0.68336
C          6.93849         5.23606         1.78714
C          7.89999         4.27965         2.44384
C         -7.55899         7.15779        -0.45449
C         -6.36255         8.00925        -0.72299
C         -5.08765         7.18537        -0.89855
C         -3.84091         7.98924        -0.85361
C         -2.53615         7.26572        -1.05201
C         -1.52644         7.57131         0.03058
C         -0.37701         6.58857         0.29317
C          0.73804         6.96378         1.28554
C          2.15540         6.62641         0.80156
C          3.20516         7.09858         1.51124
C          4.56871         6.45365         1.46878
C          5.74676         7.42861         1.74201
C          6.89687         6.52903         2.16047
C         -6.22112         9.05483         0.36980
C         -5.06178         9.68595         0.60003
C         -3.83120         9.30960        -0.13416
C         -2.50587         9.95692         0.28435
C         -1.42264         8.94187         0.59051
C         -0.38751         9.29674         1.39570
C          0.72293         8.42654         1.72194
C          1.78181         8.88856         2.43442
C          2.94015         7.96946         2.73369
C          4.16312         8.70177         3.22427
C          5.40928         8.41665         2.83698
C        -10.80408        -0.45962         1.41884
C         -9.66002        -1.28189         1.05831
C         -8.44597        -0.58439         0.56914
C         -7.34987        -1.38703        -0.07717
C         -6.03383        -0.62829        -0.31378
C         -5.02058        -1.48750        -1.05183
C         -3.88290        -0.80574        -1.75373
C         -2.56516        -1.55292        -1.79562
C         -1.30025        -0.82716        -2.30842
C          0.01812        -1.56966        -2.27906
C          1.38544        -0.85417        -2.59162
C          2.62945        -1.55307        -1.99806
C          3.70971        -0.87177        -1.15528
C          5.08937        -1.56178        -1.28945
C          6.31611        -0.83908        -0.83155
C          7.36692        -1.60634        -0.08738
C          8.63616        -0.91870         0.28172
C          9.96810        -1.59030         0.06614
C         11.06914        -0.59150        -0.09492
C         -9.69062        -2.63509         1.14613
C         -8.65891        -3.57119         0.56045
C         -7.39780        -2.88825        -0.00079
C         -6.07731        -3.65577        -0.08102
C         -4.87363        -2.90626        -0.54384
C         -3.52315        -3.35405        -0.10036
C         -2.41768        -2.77655        -0.92442
C         -1.00884        -3.17468        -0.53934
C         -0.04252        -2.92739        -1.66343
C          0.89813        -3.90882        -1.96674
C          2.79082        -2.86955        -2.27048
C          3.88613        -3.75328        -1.78403
C          5.09243        -3.07279        -1.23787
C          6.16455        -3.82930        -0.49928
C          7.41655        -3.09006        -0.13863
C          8.73588        -3.78240        -0.28098
C          9.92129        -3.00294        -0.37366
C         -8.35517        -4.74529         1.45628
C         -7.10982        -5.21002         1.62559
C         -5.86239        -4.79583         0.89868
C         -4.54388        -4.72345         1.72225
C         -3.35120        -4.33683         0.83258
C         -1.92026        -4.74400         1.24569
C         -1.04671        -4.65794        -0.09977
C          0.36242        -5.25583         0.07944
C          1.15194        -5.05341        -1.20571
C          2.34532        -5.90763        -1.61177
C          3.60748        -5.10675        -1.13016
C          4.88215        -5.93429        -1.04409
C          6.16666        -5.30543        -0.58339
C          7.50723        -5.97964        -0.93702
C          8.72510        -5.17268        -0.49038
C         -6.61977        -6.62602         1.58838
C         -5.64490        -6.85390         2.74609
C         -4.34537        -6.09025         2.43230
C         -3.03150        -6.82197         2.42422
C         -1.70771        -6.19180         1.94975
C         -0.78216        -7.16204         1.22681
C          0.23873        -6.72144         0.44650
C          1.27946        -7.69312         0.01026
C          2.30804        -7.31413        -0.98394
C          3.61936        -8.09188        -1.01988
C          4.69414        -7.17388        -0.53804
C          6.59637        -8.30787        -0.36945
C          7.60931        -7.51446        -0.81986
C         -5.46735        -8.30486         3.08971
C         -4.28679        -8.94504         3.03538
C         -3.06875        -8.30747         2.56360
C         -2.01328        -9.09893         2.21909
C         -0.79545        -8.58157         1.63582
C          0.30124        -9.38446         1.48287
C          1.60624        -8.77773         1.02810
C          2.70088        -9.74113         0.60689
C          3.70318        -9.37880        -0.22703
C          4.94290       -10.16949        -0.43365
C          6.22476        -9.71300        -0.56349
O          7.32923         0.70262         1.43794
O         -1.50586        -3.79185         2.17925
O         -8.46954         3.33720        -1.98129
O         -4.13874         5.03077        -3.22227
O         -7.45174         0.63219        -1.96799
O         -3.95869         9.25461        -1.59712
O         -3.50822        -6.07525         3.61431
O         -2.66654        -2.88642        -2.36460
O          2.37704         1.25110        -3.18538
O         -4.98782        -1.42280        -2.49337
O          1.15666        -8.10723        -1.40024
O          5.61503        -7.64760         0.38739
O          5.06296        -3.64010        -2.61703
O          9.31306        -1.56185         1.39105
O          6.11179        -1.17797        -2.24551
O         -7.92576         0.42082         1.52007
O          2.32856         3.65235        -2.56929
O          2.02703         6.02643        -1.57907
O          6.99443        -2.37726         1.09582
O         -5.83892        -6.22064         0.38138
O         -5.46123         2.43885        -2.64724
O         -5.55602        -3.88413        -1.40937
O         -1.68510         6.51551         1.01309
O          6.06190         1.24059        -2.04698
O          5.89364        -4.66491         0.70477
O         -0.82049        -1.53526        -3.48241
O          0.10580         2.47531        -3.41839
O          7.24555         4.17412        -0.28969
O         -2.25608         7.09397        -2.45715
O          1.80385        -3.56589        -2.99990
O         -7.74889        -2.17552        -1.22904
O          0.54525         6.11330         2.38828
O          9.96819         0.54300         2.51185
H          9.08049         0.42134         2.91386
O          2.56027         7.05321         3.80849
H          1.71217         6.60125         3.49365
O          5.19341         6.26622        -0.92449
H          5.47963         5.59594        -1.59195
O         -5.41936        -0.30128         0.94727
H         -6.11830         0.09353         1.52854
O          7.16991         3.66620         3.54299
H          6.73842         4.38556         4.05162
O         -6.23601        -6.21389         3.90361
H         -5.51247        -6.10248         4.55921
O         -1.64939         0.87588        -3.94607
H         -1.16887         0.18428        -4.45272
O         -2.31171         0.93192        -0.33196
H         -1.48809         1.33193         0.01826
O         -1.68174        -5.43333        -1.11360
H         -2.38944        -4.92313        -1.56406
O          3.31952        -1.15014         0.23923
H          3.96019        -0.72565         0.85000
O         -4.67123        -3.68896         2.70709
H         -3.81680        -3.65134         3.19233
O          7.55296        -5.74842        -2.38991
H          8.30604        -6.25154        -2.76546
O         -6.68233         5.00817        -2.75299
H         -5.80773         4.92726        -3.24652
O          0.99128        -4.55578         1.17042
H          0.30218        -4.40489         1.86597
O          5.11723         2.59117         1.87425
H          5.66861         2.80216         2.67007
O         -6.60680         8.71555        -1.96518
H         -5.75714         9.16465        -2.20037
O          4.48869         5.53721         2.60544
H          3.85867         5.93030         3.27153
O          1.50274        -0.96825        -4.01594
H          2.16968        -0.30888        -4.31398
O         -3.51431         3.91812         0.20160
H         -3.23837         3.07410         0.62142
O          6.08963         8.22734         0.59833
H          6.04819         7.65543        -0.20651
O         -9.33829        -4.17608        -0.57879
H         -9.16391        -3.59694        -1.35591
O          5.52417         3.57435        -1.69089
H          5.06442         3.25821        -2.49925
O          2.42921        -6.08107        -3.03224
H          1.60752        -6.52377        -3.33468
O         -3.97116         0.72512        -3.54065
H         -4.79319         0.24968        -3.78884
O         -0.94544        -5.94243         3.14941
H         -1.14668        -4.99898         3.39323
O         -2.69183        10.80769         1.41517
H         -2.73561        10.25713         2.22378
O          3.28318        -4.80536         0.24087
H          4.12300        -4.67333         0.75491
O         -6.12987         3.78201         0.68802
H         -5.20668         4.08982         0.87447
O         -0.49814        -2.27935         0.45399
H         -0.81460        -2.63811         1.35473
O         -0.56826         5.37330        -2.94336
H         -1.20878         5.19513        -3.66647
O          2.17139        -8.09265         2.18977
H          1.48074        -7.49807         2.55721
O          3.92717        -8.40502        -2.40322
H          3.62443        -7.64458        -2.95614
H         11.96823        -0.89844        -0.65137
H         11.80341         1.37235         0.20680
H         10.24567         3.00738         2.29093
H          8.80083         4.81412         2.85357
H          7.62669         6.90369         2.89777
H          6.25464         8.98225         3.26076
H          3.99435         9.46261         4.00290
H          1.80725         9.93251         2.78579
H         -0.36813        10.31929         1.80574
H         -2.16884        10.61322        -0.56017
H         -4.98419        10.48334         1.35440
H         -7.12883         9.35500         0.91537
H         -8.48165         7.66074        -0.12147
H         -9.42853         5.52863         0.40934
H        -10.91250         3.40572         0.20975
H        -11.80667         1.41963         1.35308
H        -11.65455        -0.96214         1.90248
H        -10.60882        -3.12184         1.51093
H         -9.21573        -5.36165         1.75815
H         -7.34378        -7.44652         1.38729
H         -6.36887        -8.83435         3.43276
H         -4.22711       -10.01409         3.29142
H         -2.08696       -10.18657         2.37251
H          0.27296       -10.42488         1.84101
H          2.79126       -10.66629         1.19869
H          4.79648       -11.26002        -0.51838
H          7.01761       -10.44041        -0.79809
H          8.41789        -7.96605        -1.41761
H          9.70142        -5.66861        -0.62816
H         10.86394        -3.50907        -0.63558
