         298
 CSIRO Nanostructure Databank - Neutral Graphene Oxide Data Set
C         30.25030        31.86037        -1.47487
C         30.31144        33.10244        -1.42058
C         30.26924        36.18122        -0.34459
C         30.40000        37.40838        -0.31089
C         30.34490        40.44980         0.60164
C         30.26819        41.55181         1.14714
C         32.67269        28.97322        -1.53988
C         31.55446        29.51698        -1.50436
C         32.69549        31.70696        -1.52476
C         31.35655        30.95359        -1.76907
C         32.74710        33.24289        -1.27677
C         31.39348        33.89539        -0.72546
C         32.67474        36.05836        -0.31883
C         31.43644        35.40296        -0.98662
C         32.77853        37.54070        -0.27818
C         31.50184        38.39661        -0.44426
C         32.76368        40.41509         0.53462
C         31.48354        39.47047         0.63305
C         32.71899        41.55939         1.58505
C         31.35276        42.23741         1.86359
C         32.38021        44.32594         1.62152
C         31.43264        43.68667         2.14423
C         35.46889        27.30694        -1.28335
C         35.20004        28.71763        -1.28173
C         34.02559        29.41323        -1.37801
C         35.29279        31.67030        -1.19374
C         34.01200        30.93242        -1.43904
C         35.24784        33.14793        -0.86300
C         33.92045        33.67737        -0.32578
C         35.18751        35.98043         0.08162
C         33.91039        35.21680        -0.04584
C         35.19562        37.34661         0.22732
C         33.96262        38.16451         0.18697
C         35.18564        40.06009         1.36526
C         34.00490        39.53633         0.57270
C         35.30589        41.61989         1.54791
C         33.97491        42.38131         1.85559
C         34.63015        44.76797         0.47020
C         33.66932        44.08528         1.14918
C         35.23444        46.09684         0.52345
C         37.88439        27.14760        -0.92726
C         36.53992        26.69087        -1.14354
C         37.80559        28.64601        -0.72782
C         36.49803        29.40345        -0.89961
C         37.65570        31.49026        -0.07526
C         36.64384        30.92193        -1.09027
C         37.67840        32.98681        -0.00081
C         36.50387        33.82398        -0.45452
C         37.77008        35.91525         0.25802
C         36.45449        35.19464         0.16691
C         37.77818        37.37928         0.24299
C         36.48338        38.12971         0.12473
C         37.78339        40.20577         0.69299
C         36.51997        39.43617         0.90794
C         37.73497        41.70347         0.51409
C         36.63551        42.32096         1.35342
C         37.88848        44.55878         0.90913
C         36.61430        43.82837         1.24734
C         37.83426        46.11553         0.89247
C         36.40182        46.46906         0.63716
C         40.17313        24.34285        -0.11529
C         39.25169        25.04431        -0.57599
C         40.38477        27.12643        -0.53527
C         39.04065        26.45055        -0.71514
C         40.38490        28.63212        -0.40852
C         39.12188        29.47697        -0.72025
C         40.17916        31.48367         0.48359
C         38.92270        30.63361         0.25906
C         40.20248        32.97982         0.40980
C         38.99425        33.71150        -0.07057
C         40.38656        35.92851        -0.08240
C         39.03428        35.20029        -0.13867
C         40.26022        37.40699         0.16459
C         38.99673        38.05424         0.15122
C         40.24427        40.30247         0.06224
C         38.95286        39.53100         0.04855
C         40.24806        41.73351         0.46748
C         39.07922        42.41785         0.66063
C         40.35488        44.68147         0.78291
C         39.06059        43.88106         0.75172
C         40.24868        46.01291         0.03923
C         38.80584        46.59631        -0.20261
C         40.11857        48.72672        -0.36987
C         39.08308        48.06906        -0.26331
C         42.67657        24.41402         0.70018
C         41.60064        24.81330        -0.28365
C         42.86362        27.07453         0.05889
C         41.55829        26.35248        -0.01335
C         42.88656        28.61507         0.15706
C         41.49738        29.19406         0.53130
C         42.75543        31.51708         0.94861
C         41.48700        30.72998         0.73684
C         42.75802        32.97902         0.43254
C         41.47649        33.74669         0.72379
C         42.72744        36.08584         1.05987
C         41.46171        35.24327         0.77797
C         42.76895        37.42200         0.34688
C         41.48636        38.13595         0.16632
C         42.76743        40.23220         0.32682
C         41.48518        39.53030         0.12221
C         42.82530        41.70007         0.55207
C         41.55042        42.45165         0.32609
C         42.91458        44.63960         0.44928
C         41.59575        43.93525         0.33116
C         42.83188        46.13365         0.49848
C         41.52746        46.80562         0.05694
C         42.77575        48.79804        -0.48240
C         41.46527        48.42181         0.16656
C         43.76166        25.06034         0.78396
C         45.30886        27.11151         0.96689
C         44.10407        26.38640         0.51828
C         45.35009        28.63671         1.06001
C         44.20657        29.41484         0.38124
C         45.32972        31.57186         0.66822
C         44.10004        30.78554         1.12137
C         45.31010        33.04869         0.46297
C         44.02196        33.75989         0.78820
C         45.31529        35.99208         0.68862
C         44.02283        35.25137         0.94260
C         45.28025        37.46193         0.41311
C         43.95317        38.08477         0.21401
C         45.23160        40.22305        -0.31302
C         43.91988        39.49811        -0.30707
C         45.18275        41.71467        -0.42155
C         44.18359        42.42972         0.50643
C         45.41671        44.62933         0.24999
C         44.08870        43.94623         0.30301
C         45.42075        46.17104         0.25261
C         44.13045        46.91294         0.32272
C         43.84845        48.21478        -0.29924
C         47.73738        27.26438         0.70730
C         46.68761        26.62987         0.83499
C         48.02555        28.67960         0.98844
C         46.67589        29.40970         1.17664
C         47.82979        31.50789         0.28010
C         46.65500        30.97423         1.14696
C         47.84633        33.11361        -0.02457
C         46.61353        33.82591         0.62620
C         47.75642        36.01934         0.10622
C         46.46288        35.23792         0.03725
C         47.69367        37.44213        -0.20132
C         46.47416        38.10578        -0.21874
C         47.38767        40.14345        -1.54412
C         46.37310        39.50499        -0.59025
C         47.72503        41.59746        -0.98700
C         46.45456        42.42787        -0.73759
C         47.53684        44.58468        -1.34111
C         46.68906        43.85628        -0.22616
C         47.50954        46.02232        -1.02308
C         46.58441        46.64616        -0.49550
C         50.61195        29.05418         1.09152
C         49.25425        29.40411         0.47262
C         50.37638        31.80292         0.22055
C         49.19297        30.98952         0.84153
C         50.25544        33.26848         0.66734
C         49.05845        33.90374         0.46642
C         50.22186        36.14006         0.31232
C         48.94585        35.36406         0.36058
C         50.26165        37.50324        -0.33661
C         48.91716        38.06828        -0.83464
C         49.86464        40.12732        -2.26548
C         48.72823        39.34911        -1.62872
C         49.83838        41.61750        -2.27770
C         48.75674        42.32170        -1.81920
C         49.88347        44.33710        -2.51988
C         48.59845        43.81022        -2.04474
C         51.64303        29.75988         0.87163
C         52.69306        32.10964         0.94875
C         51.74796        31.13575         0.66606
C         52.62401        33.29700         1.38623
C         51.37850        34.05717         1.28430
C         52.46745        36.48097         1.20998
C         51.32040        35.56479         1.19297
C         52.47826        37.64178         0.80582
C         51.80346        38.55065        -0.13371
C         51.76664        41.02644        -0.44224
C         51.57625        39.92135         0.38415
C         51.93661        41.82545        -1.38219
C         51.22182        42.26248        -2.66850
C         50.92077        43.71154        -2.73710
O         47.95360        33.25122        -1.40063
O         36.49283        38.56869        -1.35916
O         45.61970        36.92653         1.75411
O         47.35199        44.18711        -2.69276
O         41.51790        43.21839        -0.93600
O         34.80973        31.44466        -2.57206
O         37.31414        41.87475        -0.87266
O         44.10898        34.34651         2.11791
O         31.94218        41.34799         2.83453
O         46.06295        35.00191        -1.37347
O         38.98838        34.39569        -1.36732
O         39.44293        40.09163        -1.18461
O         45.04301        27.82559         2.22072
O         43.01611        27.96667        -1.10057
O         36.93128        28.95382         0.41103
O         46.79223        40.17794        -2.76707
O         41.05241        46.17303        -1.16460
O         39.84279        32.29877         1.65242
O         45.41041        42.31769        -1.73312
O         50.95231        34.90214         2.39021
O         41.19322        34.45628         1.96717
O         37.22482        32.17228         1.12808
O         50.73151        39.51844        -2.88694
O         47.52945        29.00001         2.29266
O         45.26660        32.14022        -0.66965
O         32.13362        31.42514        -2.86599
O         36.29146        41.81333         2.64475
O         41.92721        31.15414         2.07265
O         37.13313        35.30155         1.45106
O         45.73174        45.43306         1.44750
O         37.51482        39.56628         1.97268
O         32.96373        35.50768         1.02332
O         48.68876        38.04252        -2.26860
O         36.03648        33.88994        -1.83826
O         40.75241        28.01095        -1.67750
O         44.79218        42.33027         1.81917
O         50.71419        36.37816        -1.08756
O         43.48476        46.80914         1.62360
O         38.28937        46.60406         2.15760
H         37.58619        46.42875         2.81991
O         51.13348        40.03808         1.64003
H         51.00497        40.97679         1.88490
O         37.27976        31.16716        -2.35538
H         36.58179        31.23438        -3.04669
O         42.81526        40.78471         1.69850
H         44.28017        41.66043         2.33555
O         33.79592        32.99195         0.92421
H         33.06959        33.42777         1.43312
O         31.47608        38.99055        -1.74196
H         31.40304        38.27171        -2.40710
O         49.35153        31.14526         2.23274
H         48.47871        31.04348         2.69423
O         35.67739        43.94849         0.03499
H         37.18036        42.83167        -1.05737
O         42.72576        32.86300        -1.01069
H         43.60928        32.52389        -1.31343
O         41.52226        48.77701         1.51180
H         42.34828        48.40534         1.90442
O         41.00853        35.85957        -1.39838
H         40.44729        35.29012        -1.97803
O         40.59318        45.00642         2.17399
H         39.85959        45.59871         2.47991
O         50.29031        31.76113        -1.20716
H         49.50975        32.34071        -1.48563
O         44.68927        29.73548        -0.93223
H         44.48201        28.98876        -1.54081
O         34.03099        42.71841         3.21010
H         33.14114        42.55377         3.60897
O         31.48152        38.81225         1.87295
H         31.47500        39.48897         2.59113
O         47.62079        30.88680        -0.98233
H         47.52696        31.64234        -1.63901
O         43.55331        39.46548        -1.72318
H         44.37377        39.48888        -2.26793
O         41.19698        28.63348         1.82668
H         40.34351        29.03569         2.12944
O         31.43380        35.71443        -2.35641
H         30.90268        35.04413        -2.83752
O         47.57868        43.77696         0.90532
H         47.25207        44.42941         1.57631
O         52.39481        38.56627        -1.37819
H         52.36136        37.66288        -1.76251
O         45.80566        36.27322        -2.01048
H         46.57616        36.37379        -2.62500
O         36.10421        44.40282         2.41101
H         35.64793        43.71020         2.95488
O         34.95193        39.55852         2.70001
H         35.74455        39.79743         3.23379
O         48.36097        41.31779         0.29045
H         48.25729        42.13182         0.84922
O         42.01097        24.51621        -1.59174
H         41.54778        23.72473        -1.93259
O         51.81035        41.72985        -3.78968
H         51.70202        40.74311        -3.75724
O         46.79226        31.40639         2.51039
H         46.04422        31.01613         3.02377
O         49.37641        29.16331        -0.89245
H         49.85558        29.91633        -1.32203
O         39.38828        30.06093        -1.99418
H         39.80678        29.37355        -2.56264
O         38.34640        46.07995        -1.43023
H         39.02774        46.26259        -2.11364
O         44.27995        30.54564         2.52520
H         43.38283        30.44723         2.93076
O         35.63654        39.71811        -1.50220
H         36.28048        40.48008        -1.57478
O         32.76341        41.12598        -0.71963
H         32.50019        40.50103        -1.43866
O         31.26233        33.65991         0.66156
H         30.65604        34.34070         1.03143
O         38.74886        30.02590         1.55691
H         38.44612        30.74382         2.16180
O         46.90042        33.96666         2.02181
H         46.08279        34.26852         2.48410
O         33.01688        33.83537        -2.54784
H         33.58973        33.22169        -3.06213
O         42.63623        36.48588         2.44257
H         42.58953        35.66026         2.97721
