         252
 CSIRO Nanostructure Databank - Neutral Graphene Oxide Data Set
C         31.10709        32.03565         2.70271
C         31.00557        33.16809         2.22404
C         30.94492        36.22977         1.77111
C         30.98609        37.48868         1.81842
C         31.10045        40.64558         1.88612
C         31.14389        41.88085         1.74481
C         33.59785        29.34256         2.78232
C         32.48584        29.84808         2.99274
C         33.45399        31.92318         2.05068
C         32.38526        31.35735         3.08455
C         33.28722        33.19817         1.47331
C         31.90761        33.86160         1.25728
C         33.07636        36.08359         0.86412
C         31.96335        35.36181         1.34215
C         33.14011        37.52077         0.85749
C         32.08088        38.28364         1.43893
C         33.26097        40.46298         0.68375
C         32.19425        39.72649         1.59327
C         33.02620        41.88232         0.30443
C         31.99545        42.64652         0.88692
C         32.93820        44.63774        -0.09621
C         32.04173        44.02782         0.51215
C         36.24388        27.66185         2.05859
C         35.94836        29.05647         1.91674
C         34.81958        29.78437         2.17948
C         35.69523        31.82931         1.04823
C         34.66514        31.21313         1.80605
C         35.56582        33.15282         0.57451
C         34.37293        33.84970         0.84057
C         35.42862        36.00428        -0.12505
C         34.32485        35.31886         0.60790
C         35.09976        37.35611        -0.74555
C         34.19975        38.22273         0.12571
C         35.12465        40.23283        -1.03916
C         34.14284        39.58188        -0.11854
C         35.16712        41.72917        -1.13672
C         33.94291        42.49266        -0.68931
C         35.25615        44.62410        -1.25575
C         33.95271        44.00358        -0.94776
C         35.45204        45.98826        -1.44094
C         38.41992        27.34407         0.95385
C         37.22136        26.95938         1.78307
C         38.31683        28.89077         0.80787
C         37.16630        29.70172         1.33714
C         37.94929        31.59144        -0.19309
C         36.99487        31.13279         0.89554
C         37.92750        33.08634        -0.37159
C         36.56261        33.71582        -0.43831
C         37.76019        35.86416        -1.02122
C         36.60401        35.21914        -0.57810
C         37.74789        37.30793        -1.50161
C         36.35394        37.98796        -1.41305
C         37.70528        40.26655        -1.19128
C         36.40927        39.50243        -1.33972
C         37.68105        41.74181        -0.91080
C         36.48365        42.44944        -1.10566
C         37.76056        44.57927        -1.01782
C         36.49654        43.88769        -1.12557
C         37.83679        46.01350        -1.13480
C         36.59554        46.54315        -1.41433
C         41.24859        25.07665         1.65093
C         40.13468        25.61344         1.78685
C         40.90353        27.58167         0.59830
C         39.78759        27.06019         1.57663
C         40.69769        28.86066         0.06058
C         39.40871        29.53388         0.29579
C         40.49854        31.70230        -0.50108
C         39.32234        31.00403         0.08568
C         40.32370        33.08621        -0.96160
C         39.06534        33.77777        -0.79302
C         40.21754        35.93894        -1.56604
C         38.99499        35.17658        -1.10804
C         40.22780        37.37182        -1.05055
C         38.95984        38.10318        -1.07084
C         40.13104        40.18223        -0.46936
C         38.93254        39.46950        -0.97046
C         40.09389        41.65597        -0.19060
C         38.89724        42.44805        -0.60942
C         40.22057        44.60256        -0.42430
C         38.94557        43.84678        -0.66937
C         40.36373        46.00094        -0.91846
C         39.05264        46.81322        -0.77987
C         40.39230        48.60166        -1.63669
C         39.26153        48.06104        -1.61571
C         43.59740        25.00760         0.51855
C         42.34211        25.54296         0.87525
C         43.06102        27.45083        -0.61509
C         42.11612        26.87155         0.31059
C         42.94552        28.79491        -1.01227
C         41.76425        29.52319        -0.63912
C         42.73642        31.63149        -1.49760
C         41.67826        30.92691        -0.92865
C         42.72859        33.06318        -1.45191
C         41.49711        33.77747        -1.28209
C         42.70595        35.85478        -1.05589
C         41.50691        35.20691        -1.29126
C         42.71729        37.32583        -0.91763
C         41.41331        38.02348        -0.85072
C         42.71487        40.17654        -0.26669
C         41.44673        39.49160        -0.65841
C         42.69475        41.60457         0.17369
C         41.40715        42.36721         0.09700
C         42.82898        44.35499        -0.56327
C         41.46869        43.86131        -0.07936
C         42.89420        45.87314        -0.85878
C         41.60093        46.61346        -1.08405
C         42.94502        48.60839        -1.15557
C         41.66994        48.05784        -1.39504
C         44.36355        25.40739        -0.38419
C         45.25990        27.23333        -2.04194
C         44.18895        26.62316        -1.17333
C         45.23548        28.74618        -2.47720
C         43.80646        29.38765        -2.13042
C         45.19852        31.57348        -1.49288
C         43.93522        30.95663        -2.13255
C         45.24102        33.10701        -1.74783
C         43.94983        33.78253        -1.38384
C         45.11333        35.71125        -0.29203
C         43.94439        35.13134        -1.02390
C         45.01380        37.10384         0.24573
C         43.93031        37.97331        -0.32121
C         45.26058        40.08983        -0.25667
C         43.94097        39.39630         0.19421
C         45.19329        41.57295         0.17138
C         44.03104        42.27550         0.16614
C         45.31905        44.45191         0.08364
C         43.95915        43.78391         0.39033
C         45.15718        46.02466         0.42091
C         44.19705        46.65695        -0.56135
C         43.90963        48.09939        -0.52613
C         47.70404        27.42683        -2.20074
C         46.65339        26.79376        -2.03965
C         47.83374        28.88817        -2.30634
C         46.50685        29.53195        -2.11833
C         47.72367        31.63867        -1.61997
C         46.50915        30.88239        -1.86765
C         47.60663        33.07813        -1.50086
C         46.47286        33.75870        -1.14743
C         47.74594        36.02090        -0.45368
C         46.46907        35.00501        -0.25278
C         47.54808        37.40374         0.24294
C         46.20457        37.80617         0.89974
C         47.47442        39.99148         1.14830
C         46.46612        39.24426         0.30968
C         47.15800        41.39286         1.62405
C         46.52468        42.23275         0.46916
C         47.46644        44.37088         1.42904
C         46.42698        43.71698         0.81539
C         47.39206        45.80953         1.26665
C         46.59774        46.45336         0.55318
C         50.20885        28.92247        -1.20381
C         49.08254        29.64078        -1.79030
C         49.92573        31.55814        -0.26026
C         48.95462        31.03173        -1.25123
C         49.90786        32.92352         0.28450
C         49.24756        33.99028        -0.37404
C         49.61934        35.62251         1.33603
C         48.92620        35.23594         0.16723
C         49.60451        37.03373         1.70919
C         48.67205        37.87378         1.14883
C         49.74890        39.93707         2.17984
C         48.58814        39.28309         1.51248
C         49.61772        41.37434         2.56661
C         48.32881        42.12466         2.31021
C         49.81470        44.08826         2.57576
C         48.44213        43.64001         2.26101
C         50.79467        29.31098        -0.17530
C         51.50280        31.12531         1.51409
C         50.83865        30.62235         0.37113
C         51.38906        32.27671         1.99215
C         50.58741        33.33640         1.49416
C         51.19761        35.30873         3.02276
C         50.47257        34.66095         1.96919
C         51.26096        36.48059         3.42470
C         50.70956        37.57688         2.59594
C         51.41095        39.74801         3.98686
C         50.81408        39.04688         2.82806
C         51.39026        41.00375         4.10343
C         50.61278        42.01843         3.53308
C         50.52578        43.40334         3.39227
O         34.32938        37.20977        -1.96246
O         42.34724        40.10292        -1.67113
O         47.84037        42.92458         3.41792
O         48.78002        29.48243        -3.18490
O         44.23051        26.45647        -2.61965
O         37.08466        40.01626        -2.51733
O         37.63815        30.83034         2.16382
O         48.82136        33.73672        -1.66134
O         40.76541        44.54958         0.97840
O         33.33034        43.11281        -1.88377
O         43.78699        37.92254        -1.76812
O         50.30004        40.99936         1.32328
O         42.96234        29.05081        -3.20416
O         47.30012        38.52995        -0.74200
O         51.67660        38.39091         1.88058
O         40.19979        31.71715         0.98471
O         44.56550        35.99910         1.07957
O         37.82438        37.31952        -2.95754
O         33.44073        40.21217         2.12021
O         35.42467        36.01780         1.34879
O         43.94328        46.10874        -1.85773
O         41.95253        41.92797         1.39539
O         39.83500        40.68587         0.88175
O         34.71921        40.90264        -2.27620
O         42.98532        43.68677        -1.82932
H         43.81819        44.03399        -2.23455
O         35.94612        37.60814        -2.83868
H         35.81376        38.43820        -3.36526
O         45.41377        33.36399        -3.16426
H         44.79361        32.77724        -3.66655
O         32.79306        31.77783         4.35576
H         32.14973        31.46827         5.02518
O         46.09974        41.23246         2.61033
H         46.24449        41.92810         3.29903
O         45.37238        40.13494        -1.68173
H         44.74764        39.49053        -2.09356
O         31.53573        33.51390        -0.08491
H         30.63160        33.85023        -0.25635
O         38.38459        26.73674        -0.32005
H         37.50719        26.87993        -0.72960
O         43.88840        31.30187        -3.52957
H         43.35733        30.55301        -3.93463
O         38.91711        47.16558         0.59146
H         39.70853        47.66878         0.87580
O         44.54805        46.26193         1.66880
H         45.08383        45.86643         2.38709
O         39.87473        27.76513         2.79478
H         40.73638        27.58679         3.22320
O         43.95355        39.34162         1.63400
H         44.33914        40.17611         1.99497
O         37.50126        30.98402        -1.43966
H         36.77871        31.56177        -1.79887
O         45.59945        44.32195        -1.31851
H         46.41013        43.77002        -1.43158
O         46.62589        34.46403         1.08424
H         45.96928        34.91861         1.66722
O         45.04664        31.37042        -0.06632
H         45.70659        31.92993         0.39916
O         43.63730        43.99992         1.76449
H         42.86151        43.42774         1.99270
O         47.35507        42.17768        -0.71228
H         47.09454        41.39555        -1.25129
O         35.97428        33.23220        -1.74460
H         36.37330        33.77148        -2.46313
O         47.93773        36.23065        -1.83877
H         47.87085        37.18987        -2.03642
O         40.15487        36.03753        -3.02002
H         39.31630        36.52250        -3.25566
O         45.27852        28.69565        -3.89845
H         44.31710        28.60986        -4.16769
O         46.16798        37.68031         2.30185
H         45.25715        37.89009         2.60569
