         334
 CSIRO Nanostructure Databank - Neutral Graphene Oxide Data Set
C         30.31727        57.21586        -0.01716
C         30.52603        58.59470        -0.60597
C         29.46850        59.23631        -1.24013
C         30.80564        61.22527        -1.60033
C         29.61247        60.54879        -1.74410
C         32.87395        52.94583         0.00250
C         32.86527        54.32157         0.11972
C         31.64881        55.09830        -0.07287
C         32.79301        57.19886         0.65734
C         31.60648        56.44009         0.10796
C         32.90689        58.61155         0.12443
C         31.77703        59.25979        -0.46281
C         33.13667        61.28787        -0.79268
C         31.91843        60.60291        -0.95828
C         35.31762        48.64406        -0.24866
C         35.30110        50.05740        -0.08708
C         34.09052        50.79183        -0.07036
C         35.32090        52.87102         0.35817
C         34.08989        52.18608         0.10525
C         35.31913        54.30498         0.52352
C         34.09436        55.03311         0.39196
C         35.30871        57.13406         0.62869
C         34.09062        56.43671         0.51649
C         35.33051        58.57659         0.63644
C         34.11696        59.28583         0.26180
C         35.40965        61.38383         0.15042
C         34.24164        60.67498        -0.14591
C         37.71245        44.34257        -1.13651
C         37.69298        45.80425        -0.73377
C         36.54761        46.48401        -0.46329
C         37.74821        48.65804        -0.23357
C         36.52344        47.93748        -0.29612
C         37.77127        50.04547        -0.04072
C         36.54193        50.76068         0.06436
C         37.79673        52.82082         0.61978
C         36.54672        52.15577         0.34447
C         37.75230        54.22815         1.18539
C         36.51939        54.99326         0.77645
C         37.77140        57.12654         0.76917
C         36.53664        56.41152         0.74585
C         37.78346        58.55941         0.75596
C         36.53056        59.26504         0.79029
C         37.81413        61.42805         0.73305
C         36.49577        60.76300         0.98155
C         40.20731        40.13486        -0.11534
C         40.21248        41.55800        -0.28956
C         39.01604        42.26501        -0.58312
C         40.24762        44.35130        -0.81170
C         39.02144        43.64087        -0.81692
C         40.26933        45.81830        -0.98082
C         38.96371        46.55070        -0.86548
C         40.22824        48.73084        -0.73165
C         39.05034        47.90761        -0.19302
C         40.25689        50.09982        -0.08827
C         39.03377        50.74858         0.11875
C         40.28547        52.77163         0.86741
C         38.99561        52.12705         0.52856
C         40.29815        54.27718         1.10916
C         39.02547        55.01358         0.96831
C         40.26796        57.15820         0.83084
C         39.00374        56.38182         0.82513
C         40.24418        58.54442         0.21642
C         38.99233        59.28375         0.62207
C         40.27231        61.41357         0.55489
C         39.00136        60.72164         0.61272
C         42.67400        35.92770         0.78408
C         42.64611        37.28839         0.42733
C         41.41747        37.98763         0.20903
C         42.64951        40.11782         0.31333
C         41.37841        39.38974         0.09718
C         42.66463        41.61972         0.17798
C         41.42601        42.29960        -0.22471
C         42.71778        44.42054        -0.45869
C         41.45816        43.68005        -0.51137
C         42.73043        45.80677        -0.54141
C         41.52151        46.56629        -0.68501
C         42.74425        48.70695        -0.46358
C         41.52127        47.95592        -0.57698
C         42.74374        50.06816        -0.22678
C         41.50970        50.77664         0.04682
C         42.78454        52.84514         0.54295
C         41.54646        52.12438         0.45743
C         42.76843        54.27964         0.76072
C         41.57754        54.96625         0.90343
C         42.78359        57.13814         0.31987
C         41.56808        56.43695         0.88038
C         42.70969        58.61715         0.62433
C         41.52829        59.28743         0.52961
C         42.73907        61.45036         0.66743
C         41.48886        60.74865         0.62231
C         45.14551        33.26665         1.79587
C         43.91814        33.92006         1.53175
C         45.13308        35.97323         0.94770
C         43.89179        35.27259         1.10673
C         45.12671        37.26298         0.40910
C         43.90199        37.97572         0.25316
C         45.11302        40.11586        -0.00870
C         43.92245        39.39723         0.12191
C         45.15643        41.55416         0.00310
C         43.95058        42.29780        -0.04485
C         45.22009        44.34505        -0.34758
C         43.96842        43.68418        -0.28535
C         45.23607        45.77220        -0.83876
C         44.02559        46.55710        -0.30869
C         45.29895        48.69329        -0.47030
C         44.01567        47.99107        -0.86101
C         45.29086        50.07185        -0.19926
C         44.01951        50.86228        -0.40140
C         45.25021        52.86304         0.56197
C         44.01107        52.20244         0.29605
C         45.25150        54.29424         0.83488
C         44.03079        55.01119         0.77122
C         45.25408        57.13094         0.86852
C         44.05022        56.42595         0.74035
C         45.23185        58.62772         0.64981
C         43.94091        59.30275         1.15782
C         45.19796        61.45689         0.69595
C         43.95562        60.78879         0.83095
C         46.34787        33.92293         1.73635
C         47.64178        35.76432         0.57500
C         46.43253        35.39673         1.46620
C         47.68823        37.25255         0.28030
C         46.38481        37.90169        -0.02169
C         47.64274        40.13027        -0.18868
C         46.36622        39.40211        -0.28038
C         47.65760        41.48125         0.03549
C         46.40949        42.23254        -0.00215
C         47.68564        44.39769        -0.03495
C         46.41567        43.63933        -0.15595
C         47.70028        45.82308        -0.42457
C         46.52591        46.51442        -0.55531
C         47.74675        48.65666        -0.25160
C         46.51047        47.96580        -0.47295
C         47.74156        50.04612         0.06037
C         46.49101        50.75476         0.11612
C         47.71993        52.78394         0.89328
C         46.45982        52.14181         0.48504
C         47.73053        54.28243         1.17695
C         46.45822        55.02018         1.01328
C         47.75071        57.15731         1.39629
C         46.46423        56.42699         1.04314
C         47.74234        58.61133         0.97427
C         46.45595        59.35563         1.23936
C         47.65555        61.43848         0.51009
C         46.44432        60.79619         0.77418
C         48.84446        37.93709         0.15025
C         50.15672        40.08274        -0.28957
C         48.88478        39.31891        -0.48598
C         50.18175        41.46522        -0.10013
C         48.95543        42.15419         0.47362
C         50.30538        44.40568         0.26719
C         48.95081        43.68788         0.32131
C         50.25962        45.83870        -0.24958
C         48.99894        46.50169        -0.77145
C         50.19856        48.66412        -0.38681
C         48.98726        47.97533        -0.42566
C         50.20602        50.03011         0.00866
C         48.99082        50.71344         0.25148
C         50.18529        52.83377         0.70327
C         49.00525        52.12026         0.59989
C         50.20122        54.27976         0.78118
C         49.00059        55.00932         0.97423
C         50.19171        57.13458         0.76195
C         48.99854        56.42114         0.96420
C         50.18233        58.58608         0.66706
C         48.90482        59.28857         0.70803
C         50.10604        61.41498         0.34916
C         48.89819        60.73944         0.51488
C         51.35617        42.17747        -0.34893
C         52.74278        44.28165        -0.26302
C         51.36647        43.66316        -0.55513
C         52.71415        45.79843        -0.25214
C         51.44912        46.49959        -0.39709
C         52.78223        48.73338        -0.71561
C         51.43823        47.94096        -0.92433
C         52.65492        50.01670         0.07780
C         51.48036        50.68773         0.26119
C         52.66618        52.88866         0.35324
C         51.48911        52.09038         0.85381
C         52.64385        54.27680         0.29241
C         51.41752        54.99235         0.56936
C         52.64237        57.12711         0.40332
C         51.42116        56.41619         0.56989
C         52.67691        58.59229         0.74343
C         51.36244        59.29437         0.52522
C         52.56584        61.42913         0.23892
C         51.35984        60.73339         0.37282
C         53.89715        46.48726        -0.16438
C         55.16353        48.58096        -0.03105
C         53.96770        47.91936        -0.21389
C         55.21529        50.01819        -0.02352
C         53.95185        50.71042         0.43876
C         55.12816        52.89732        -0.33848
C         53.85240        52.14027        -0.05037
C         55.08818        54.35580        -0.18654
C         53.85977        55.01921         0.02513
C         55.06872        57.18007        -0.08214
C         53.85004        56.44755         0.13122
C         55.04617        58.63737        -0.07870
C         53.87079        59.32487         0.19537
C         55.01718        61.47362        -0.06833
C         53.82878        60.76086         0.13307
C         56.37929        50.73839        -0.19979
C         57.57918        52.92540        -0.24901
C         56.41553        52.17925        -0.22989
C         57.56620        54.36091        -0.34176
C         56.30123        55.07366        -0.29219
C         57.48457        57.22088        -0.77719
C         56.26522        56.49329        -0.31657
C         57.49111        58.68321        -0.47031
C         56.27233        59.36458        -0.28746
C         57.48021        61.50491        -0.31701
C         56.26152        60.80101        -0.21670
C         58.75882        55.09129        -0.38987
C         59.95656        57.24010        -0.49807
C         58.77862        56.51058        -0.50947
C         59.96229        58.67642        -0.55381
C         58.71125        59.38876        -0.49657
C         59.95554        61.51405        -0.47387
C         58.70678        60.82196        -0.42299
C         61.15748        59.40364        -0.58028
C         61.14432        60.81383        -0.55689
O         39.57415        46.36141        -2.18753
O         57.35552        57.24264        -2.34872
O         40.30922        53.32167         2.24113
O         51.23276        47.81919        -2.32725
O         42.60793        40.97367         1.51129
O         48.16344        44.28607         1.41273
O         41.00892        57.06750         2.08802
O         47.70858        53.32099         2.27532
O         54.27582        52.38000        -1.42335
O         46.28157        38.42734        -1.39902
O         39.34404        47.63693         1.21149
H         38.50010        47.45134         1.67362
O         45.25422        58.78593        -0.79574
H         45.33202        59.74506        -0.99466
O         48.86412        39.05620        -1.93237
H         47.96664        38.68693        -2.13188
O         53.62977        43.81096        -1.29080
H         54.36310        44.45121        -1.39755
O         49.04669        46.37853        -2.22302
H         49.87157        46.88293        -2.51433
O         40.14350        58.34814        -1.22636
H         40.19291        59.22957        -1.65163
O         40.03250        48.99172        -2.14543
H         39.97729        48.11171        -2.59514
O         54.08246        50.74416         1.88733
H         53.25200        51.13381         2.26601
O         32.54970        57.33805         2.10201
H         32.60321        56.44134         2.49586
O         49.03434        41.89013         1.90246
H         48.48686        42.58246         2.34083
O         47.55972        35.06740        -0.67228
H         46.84011        35.46438        -1.20551
O         37.65632        54.06037         2.64561
H         38.53101        53.69947         2.93549
O         46.70651        36.06254         2.74416
H         45.97908        35.83360         3.36042
O         53.20881        49.21651        -2.01483
H         52.53012        48.84063        -2.64963
O         47.81189        57.15605         2.86115
H         47.08637        57.75654         3.16853
O         51.67237        51.95505         2.31909
H         50.83441        51.60285         2.69015
O         42.73537        57.00232        -1.13124
H         43.53093        57.46377        -1.48154
O         44.18026        46.70746         1.12482
H         44.16058        45.81621         1.53273
O         45.15111        45.62405        -2.27678
H         44.94428        46.50915        -2.66501
O         44.03931        51.19068        -1.85398
H         43.26550        51.76816        -2.03220
O         52.87745        58.61211         2.21642
H         52.09508        58.17838         2.62121
O         50.79897        44.42763         1.62686
H         50.03228        44.65060         2.20110
O         43.97640        47.97281        -2.31987
H         44.02990        48.90899        -2.61794
O         51.05652        43.84844        -1.95306
H         51.90934        43.77422        -2.43914
O         29.33344        56.48675        -0.75166
H         29.64252        56.39866        -1.67622
O         36.60275        43.64157        -0.57675
H         36.70878        43.61778         0.39594
O         57.23149        55.89506        -2.80999
H         58.16567        55.61309        -2.96769
O         46.32364        59.38652         2.69355
H         46.96382        60.04696         3.03176
O         36.15357        61.01136         2.40681
H         35.34601        60.49087         2.60654
O         43.86255        59.12883         2.59410
H         42.96511        59.39677         2.88252
H         29.90518        57.34973         1.02326
H         28.50822        58.71144        -1.34448
H         30.91495        62.25146        -1.97976
H         28.75973        61.03208        -2.24112
H         31.93682        52.41154        -0.21501
H         30.73647        54.56658        -0.38680
H         33.22468        62.32854        -1.13874
H         34.36393        48.10303        -0.33697
H         33.13757        50.26480        -0.22605
H         35.49156        62.44208        -0.14070
H         37.57797        44.31080        -2.25421
H         35.59089        45.94048        -0.43092
H         37.83874        62.52866         0.73623
H         39.24868        39.60371        -0.21542
H         38.06021        41.72172        -0.61780
H         40.26049        62.51378         0.57371
H         41.72854        35.37468         0.88552
H         40.47843        37.41484         0.18088
H         42.73184        62.54313         0.53141
H         45.12558        32.19845         2.05803
H         42.97429        33.36503         1.62345
H         45.18932        62.53002         0.44530
H         47.28112        33.38954         1.96810
H         48.58257        35.43669         1.08060
H         47.65602        62.51341         0.27219
H         49.80325        37.42706         0.33373
H         51.08176        39.58444        -0.62285
H         50.09954        62.50763         0.21906
H         52.24705        41.61806        -0.67938
H         53.10673        43.91096         0.73875
H         52.54299        62.52549         0.14697
H         54.84122        45.93353        -0.02428
H         56.09575        48.00818         0.10456
H         54.99556        62.57352        -0.08518
H         57.32358        50.19825        -0.37250
H         58.55413        52.41656        -0.20768
H         57.47343        62.60465        -0.28315
H         59.71846        54.55605        -0.31635
H         60.91905        56.71461        -0.39793
H         59.95949        62.61303        -0.43916
H         62.11761        58.86899        -0.61651
H         62.09828        61.35891        -0.58987
