         621
 CSIRO Nanostructure Databank - Neutral Graphene Oxide Data Set
C          5.85760        31.55019         1.43677
C          5.89950        32.88726         1.17449
C          8.27529        27.32398         2.31068
C          8.24580        28.72467         2.25737
C          7.04712        29.44191         1.96442
C          8.27225        31.56635         1.99446
C          7.04833        30.82363         1.80721
C          8.32175        32.95097         1.67506
C          7.14058        33.62575         1.22284
C          8.43837        35.66234         0.70215
C          7.20090        34.95718         0.80092
C          8.50011        36.96270         0.17453
C         10.63713        23.05526         2.41255
C         10.73501        24.48505         2.39760
C          9.52496        25.20893         2.49206
C         10.71455        27.34570         2.71328
C          9.48896        26.61531         2.49436
C         10.66533        28.73976         2.79472
C          9.45812        29.46627         2.51612
C         10.63217        31.67467         2.76952
C          9.43132        30.87577         2.44434
C         10.71438        33.03961         2.20477
C          9.58297        33.66077         1.68722
C         10.87874        35.65505         0.95419
C          9.65261        35.00276         1.12328
C         10.95660        36.93149         0.30247
C          9.74152        37.61827        -0.04666
C         11.09441        39.50254        -0.88050
C          9.84242        38.88476        -0.66280
C         11.19974        40.76548        -1.50732
C         13.25575        18.97428         1.03366
C         13.20049        20.38540         1.35222
C         11.96151        20.88916         1.89732
C         13.37680        23.36789         1.64664
C         11.59589        22.23398         1.78093
C         13.27374        24.62137         2.28646
C         11.98772        25.24328         2.43287
C         13.20182        27.28489         3.11168
C         11.97161        26.62056         2.78048
C         13.14259        28.70516         3.55607
C         11.85287        29.45108         3.30715
C         13.20037        31.57907         2.93925
C         11.88427        30.94424         3.18241
C         13.20948        32.97771         2.69880
C         12.04536        33.65050         2.06241
C         13.37862        35.79783         1.24057
C         12.13600        34.98238         1.36131
C         13.41537        36.62053        -0.01967
C         12.20392        37.50177        -0.05834
C         13.59501        39.48395        -0.66553
C         12.31604        38.80871        -0.55801
C         13.59537        40.86355        -0.94864
C         12.40896        41.48214        -1.54356
C         13.25524        43.79516        -2.11852
C         12.37511        42.70928        -2.29822
C         13.67206        44.80823        -2.97339
C         15.65201        14.90143        -0.47319
C         15.61987        16.22266        -0.00711
C         14.42127        16.92677         0.22904
C         15.63965        19.08289         0.38845
C         14.38549        18.31198         0.56486
C         15.61925        20.58947         0.62112
C         14.38778        21.16098         1.27218
C         15.72224        23.16203         2.13998
C         14.50425        22.53505         1.69205
C         15.72062        24.48152         2.62509
C         14.49204        25.24151         2.71015
C         15.67926        27.31998         3.53972
C         14.43253        26.60576         3.12702
C         15.72528        28.79097         3.54044
C         14.42586        29.52699         3.81938
C         15.64410        31.57942         3.06280
C         14.39919        30.89468         3.15763
C         15.67788        32.98794         2.82798
C         14.42803        33.62880         2.87085
C         15.84847        35.71456         1.34584
C         14.53537        35.58499         1.94051
C         15.82180        36.48197         0.19875
C         14.72104        37.35820        -0.13128
C         16.14364        39.37224        -0.42259
C         14.84385        38.71793        -0.42320
C         16.15225        40.85493        -0.52106
C         14.85129        41.60767        -0.68727
C         16.09143        43.62537        -1.61267
C         14.97631        43.02846        -1.07395
C         16.07230        44.97043        -2.15954
C         14.89046        45.56815        -2.75057
C         16.15132        47.65570        -3.22655
C         14.97773        46.84927        -3.32245
C         16.19003        48.99274        -3.66086
C         18.07657        10.89821        -1.99202
C         18.09614        12.20483        -1.47175
C         16.88802        12.89095        -1.17427
C         18.14032        14.94583        -0.64294
C         16.87715        14.22081        -0.73214
C         18.17885        16.24660        -0.15225
C         16.92447        16.81322         0.49008
C         18.20398        18.98634         0.87626
C         16.92815        18.32536         0.40440
C         18.09712        20.48552         0.93334
C         16.91707        21.10630         1.20360
C         18.29734        23.10948         2.05483
C         16.96604        22.39360         1.93737
C         18.30706        24.51220         2.57347
C         17.00242        25.14247         3.00518
C         18.24843        27.38829         3.23232
C         17.00429        26.60163         3.37425
C         18.22143        28.77082         3.53722
C         16.92765        29.48021         3.62835
C         17.83964        31.86132         3.88888
C         16.84747        30.95203         3.51484
C         18.03285        33.15290         3.28268
C         16.91831        33.73041         2.68768
C         18.41453        35.67566         1.85582
C         17.10185        34.85015         1.65173
C         18.57910        36.96623         1.17372
C         17.66892        37.41742         0.20879
C         18.59097        39.58726         0.02739
C         17.39131        38.80323        -0.05646
C         18.61955        40.77402        -0.84315
C         17.37413        41.50177        -1.01146
C         18.63794        43.58079        -1.81984
C         17.33823        42.81816        -1.66507
C         18.57799        45.06500        -1.82923
C         17.30975        45.69228        -2.24046
C         18.59747        47.76218        -2.68411
C         17.31828        47.02553        -2.66516
C         18.62411        49.18530        -3.11019
C         17.30959        49.91757        -3.26118
C         18.69775        51.88187        -4.01685
C         17.49082        51.18173        -4.06010
C         18.83210        53.19087        -4.54973
C         20.35184         7.45961        -4.64257
C         20.45108         8.47295        -3.68023
C         19.24861         9.06943        -3.15937
C         20.55748        10.72358        -1.87120
C         19.26037        10.19994        -2.35647
C         20.62056        12.18149        -1.46174
C         19.34715        12.93683        -1.37245
C         20.59406        15.10298        -1.27863
C         19.35540        14.27513        -1.04951
C         20.63465        16.35244        -0.42742
C         19.44104        16.97841        -0.07067
C         20.54471        19.18773        -0.02642
C         19.43650        18.40519         0.21600
C         20.45470        20.66517        -0.04824
C         19.28633        21.31290         0.63491
C         20.52392        23.45334         1.01236
C         19.41728        22.66134         1.20442
C         20.58808        24.79169         1.61350
C         19.47499        25.35896         2.25880
C         20.63870        27.45625         2.64424
C         19.45550        26.73166         2.73726
C         20.72908        28.75635         3.29389
C         19.48869        29.47245         3.62393
C         20.79217        31.61094         3.75116
C         19.68997        30.77539         4.09470
C         20.65404        33.09947         3.69240
C         19.35023        33.87896         3.35890
C         20.76616        35.96908         2.62988
C         19.45938        35.19609         2.61827
C         20.77669        37.44200         2.24002
C         19.69025        37.85971         1.44461
C         20.98444        39.81666         0.55741
C         19.73642        39.09649         0.67502
C         21.09136        41.00744        -0.21068
C         19.97782        41.47884        -1.04116
C         21.12000        43.75987        -1.15335
C         19.94938        42.91291        -1.49608
C         20.92312        45.22760        -0.95812
C         19.67825        45.82227        -1.50664
C         20.90929        48.10915        -1.60123
C         19.67323        47.27874        -1.76685
C         21.11889        49.27994        -2.55041
C         19.84072        50.01012        -2.89340
C         21.24523        51.90520        -3.63956
C         19.88914        51.26598        -3.41053
C         21.18576        53.40267        -3.80800
C         20.01691        53.97445        -4.38333
C         21.19830        56.13201        -4.62459
C         20.03768        55.34053        -4.77464
C         21.23255        57.48825        -5.11227
C         22.53158         5.50481        -6.96813
C         21.39902         5.94521        -6.29834
C         22.78082         7.49010        -4.96872
C         21.49893         6.95179        -5.29670
C         22.89370         8.46292        -3.93393
C         21.75017         8.94210        -3.27837
C         23.15309        10.72288        -2.00954
C         21.82522        10.00101        -2.24061
C         23.09484        12.19569        -1.80465
C         21.91110        12.90012        -1.59747
C         23.07140        15.05967        -1.36301
C         21.90146        14.33549        -1.37213
C         23.22087        16.33323        -0.55927
C         21.91360        17.04338        -0.21977
C         23.04960        19.41961        -0.49177
C         21.87414        18.57873        -0.12285
C         22.96313        20.79317        -0.56826
C         21.68544        21.50503        -0.28492
C         22.91622        23.84153         0.06684
C         21.65672        22.96997         0.16036
C         23.01744        24.97534         1.06044
C         21.82016        25.53340         1.51239
C         23.10468        27.72998         1.83834
C         21.79240        26.94464         1.90221
C         23.22717        29.00126         2.54572
C         22.04895        29.54477         3.23163
C         23.19581        31.72819         3.17208
C         21.98040        30.99847         3.35437
C         23.13524        33.15160         3.38772
C         21.93269        33.79952         3.47323
C         23.14535        35.92497         3.81827
C         21.95328        35.26624         3.23152
C         23.15087        38.00127         3.04197
C         21.99336        38.24052         2.19602
C         23.45314        39.82273         0.89599
C         22.10769        39.32498         1.28520
C         23.61459        41.07825         0.03149
C         22.29914        41.80663        -0.16243
C         23.55781        43.91319        -0.57276
C         22.31195        43.12164        -0.54881
C         23.48162        45.41893        -0.62437
C         22.12976        46.06868        -0.67696
C         23.23695        48.27714        -0.75366
C         22.14421        47.50828        -1.02696
C         23.21254        49.72672        -1.08708
C         22.20830        50.21329        -2.07800
C         23.52433        52.25068        -2.54523
C         22.27866        51.44989        -2.62983
C         23.48985        53.66363        -2.91970
C         22.33455        54.20944        -3.55639
C         23.64077        56.32058        -4.03592
C         22.33672        55.56879        -3.98908
C         23.44287        57.81827        -4.07873
C         22.32800        58.33415        -4.90519
C         23.57873        60.42964        -5.20415
C         22.39649        59.67112        -5.34988
C         23.78945         6.05551        -6.68522
C         25.21202         7.64951        -5.45682
C         23.93984         7.04760        -5.69614
C         25.39375         8.62695        -4.47623
C         24.25256         8.94167        -3.57229
C         25.68690        10.87113        -2.62575
C         24.39371        10.10553        -2.62761
C         25.65936        12.32797        -2.23640
C         24.30880        12.96364        -2.13945
C         25.58537        15.16693        -1.82893
C         24.29465        14.46727        -1.91192
C         25.51516        16.62160        -1.64894
C         24.26848        17.27660        -1.13892
C         25.48217        19.41505        -0.86539
C         24.31505        18.72042        -0.73289
C         25.49628        20.89691        -1.12313
C         24.19288        21.61453        -0.76522
C         25.47031        23.48046         0.49025
C         24.20689        23.01473        -0.18483
C         25.51211        24.87996         1.03069
C         24.26396        25.68722         1.10261
C         25.58215        27.75329         1.56389
C         24.34642        27.02494         1.49562
C         25.63763        29.07179         2.02796
C         24.41569        29.71897         2.48741
C         25.63415        31.92170         2.52986
C         24.39996        31.11146         2.84733
C         25.67091        33.28500         3.16473
C         24.42096        33.79569         3.81278
C         25.62111        35.94752         4.12817
C         24.35692        35.28732         3.89680
C         25.60552        38.07065         3.57686
C         24.43472        38.47947         2.82305
C         25.95035        40.06189         1.51863
C         24.66208        39.30029         1.60977
C         25.93192        41.47893         1.09938
C         24.75732        42.01238         0.45152
C         26.01142        44.15558        -0.03843
C         24.76185        43.31546         0.01825
C         25.77944        45.63583         0.26002
C         24.60149        46.23772        -0.07154
C         25.63402        48.59888         0.29308
C         24.40046        47.71374         0.00070
C         25.68608        49.92537        -0.32205
C         24.47669        50.53313        -0.88070
C         25.83290        52.63082        -1.43730
C         24.67945        51.74182        -1.74096
C         25.82332        53.95762        -1.89199
C         24.58454        54.52646        -2.45475
C         25.91331        56.69413        -2.91772
C         24.61593        55.95585        -2.92881
C         25.94872        57.96095        -3.50552
C         24.72175        58.65774        -3.90916
C         24.72036        59.94385        -4.59599
C         26.62807         9.29520        -4.32012
C         27.96124        11.21343        -3.54616
C         26.80859        10.42209        -3.47864
C         28.01078        12.56689        -3.06609
C         26.82690        13.17457        -2.55356
C         28.00146        15.34951        -2.41372
C         26.78990        14.56762        -2.25592
C         28.02157        16.72992        -2.10169
C         26.81635        17.31996        -1.47946
C         27.96205        19.58517        -1.38970
C         26.78515        18.75954        -1.08897
C         27.97769        20.92167        -0.92970
C         26.75899        21.54586        -0.60460
C         28.10356        23.39493         0.56448
C         26.75897        22.73446         0.23634
C         28.11648        24.80000         1.22911
C         26.83027        25.60021         0.93926
C         28.12245        27.83894         1.28333
C         26.82479        27.09693         1.09246
C         28.12523        29.14100         1.99812
C         26.91042        29.74851         2.24053
C         28.17136        31.87788         2.98010
C         26.88370        31.11578         2.81341
C         28.11328        33.35570         3.04416
C         26.84764        34.00940         3.27100
C         28.07808        36.19112         3.55777
C         26.84229        35.42207         3.69107
C         28.10124        37.62194         3.48274
C         26.89452        38.37255         3.19637
C         28.12127        40.49364         2.84904
C         27.08260        39.55836         2.33255
C         28.14926        41.85236         2.23578
C         27.05927        42.26827         1.30861
C         28.30187        44.32985         0.90196
C         27.13146        43.59065         0.78733
C         28.29311        45.74259         0.61726
C         26.97235        46.40825         0.67794
C         28.22759        48.60600         0.35339
C         26.93918        47.92881         0.64715
C         28.21664        50.07289         0.19245
C         26.88458        50.75060        -0.19448
C         28.19206        52.82765        -0.76532
C         26.96631        52.08251        -0.81165
C         28.17693        54.16246        -1.24991
C         27.01210        54.75475        -1.79085
C         27.03849        56.08035        -2.32761
C         29.17957        13.35208        -3.22497
C         30.38546        15.51751        -2.99247
C         29.20543        14.73304        -2.89131
C         30.40147        16.90076        -2.68511
C         29.16809        17.51350        -2.27450
C         30.37889        19.79737        -2.18484
C         29.10640        18.97460        -2.06407
C         30.43927        21.09106        -1.44207
C         29.24107        21.64127        -0.79837
C         30.54768        23.63964        -0.15495
C         29.28258        22.86280        -0.15335
C         30.59505        24.98628         0.47495
C         29.35352        25.60560         0.93413
C         30.63337        27.61096         1.80495
C         29.38279        27.05767         1.14838
C         30.59267        29.11227         1.99097
C         29.41163        29.80337         2.24023
C         30.63276        31.92579         2.83609
C         29.45101        31.20103         2.67098
C         30.55485        33.34886         3.15596
C         29.31125        34.07034         3.14586
C         30.55329        36.23316         3.28683
C         29.31548        35.50985         3.34370
C         30.57061        37.66257         3.31526
C         29.33971        38.32954         3.36070
C         30.61761        40.55927         3.36695
C         29.28851        39.82716         3.59556
C         30.65269        41.95307         2.75339
C         29.43923        42.56056         2.15908
C         30.78798        44.38715         1.16164
C         29.50548        43.71939         1.43158
C         30.77568        45.81335         0.66281
C         29.45746        46.49040         0.55495
C         30.71809        48.57313        -0.09934
C         29.41971        47.91399         0.33542
C         30.66620        50.07798        -0.09504
C         29.47975        50.78682        -0.12363
C         29.40810        52.18399        -0.40059
C         31.60635        17.66366        -2.68570
C         32.84571        19.76921        -2.31000
C         31.66103        19.05484        -2.38717
C         32.78986        21.27526        -2.23539
C         31.64691        21.72565        -1.35395
C         33.11713        23.59560        -0.33549
C         31.80573        22.87722        -0.43447
C         33.20814        24.96538         0.30864
C         31.90807        25.62213         0.85464
C         33.03100        27.82788         0.98944
C         31.87624        27.05631         1.14275
C         33.02531        29.19498         1.35422
C         31.89668        29.78201         2.12199
C         33.13618        32.02079         2.16577
C         31.93943        31.22488         2.57772
C         33.45524        33.16541         2.84252
C         31.67980        34.12135         3.51898
C         33.08378        36.20683         3.22635
C         31.79754        35.52021         3.33760
C         33.09920        37.62547         3.22902
C         31.85388        38.38244         3.30879
C         33.14240        40.57811         3.49888
C         31.87026        39.77406         3.33533
C         33.14283        41.92132         2.77748
C         31.96186        42.55436         2.37750
C         33.20319        44.60471         1.74142
C         31.99949        43.83443         1.77897
C         33.16644        45.98155         1.35586
C         31.99147        46.63877         0.89769
C         31.91778        47.99681         0.61790
C         34.08558        22.01397        -2.00018
C         35.25511        24.11040        -1.50447
C         34.18259        23.19440        -1.29018
C         35.34300        25.40650        -0.95652
C         34.33968        25.84603        -0.00189
C         35.39344        28.01270         0.41912
C         34.26578        27.20419         0.46428
C         35.29153        29.48925         0.16023
C         34.03029        30.09207         0.76888
C         35.29350        32.36897         0.84348
C         34.04363        31.55525         1.09877
C         35.46765        33.68664         1.54666
C         34.40353        34.16702         2.46123
C         35.59951        36.24856         2.83897
C         34.31778        35.49776         2.86937
C         35.59044        37.69700         2.88610
C         34.34946        38.37955         3.08179
C         35.59636        40.51059         2.99688
C         34.37136        39.78316         3.15530
C         35.59379        41.92402         2.86391
C         34.38304        42.62211         2.61340
C         34.39130        43.96700         2.17145
C         36.39698        26.23793        -1.52311
C         37.89884        28.29431        -1.42000
C         37.01544        27.30727        -0.89096
C         38.18997        29.48013        -0.72109
C         36.53037        30.28257         0.50537
C         37.78305        32.40892         0.31389
C         36.55674        31.65467         0.51538
C         37.84803        33.75363         0.82815
C         36.80078        34.28290         1.59525
C         38.05003        36.43246         1.90435
C         36.91651        35.56828         2.27651
C         38.02507        37.76364         2.28348
C         36.82123        38.40939         2.73272
C         36.80977        39.80958         2.83058
C         38.87145        30.63405        -1.15978
C         39.94670        32.79491        -0.79082
C         38.84763        31.90106        -0.50103
C         40.06571        34.03288        -0.22809
C         39.03362        34.56688         0.61995
C         39.10370        35.86110         1.12477
O         13.86109        43.80740        -0.82803
O         24.09490        13.87344        -3.26168
O         22.61297         9.79617        -1.03070
O         32.24577        30.14567         3.53517
O         24.04227        55.68563        -1.64194
O         22.11625        27.83037         0.74641
O         24.60436         8.74137        -2.15913
O         17.88246        24.48787         3.97721
O         27.43670        31.25377         4.13675
O         37.73446        29.57632         0.62059
O         28.91663        27.90550         0.03476
O         16.98036        36.49944        -0.59246
O         18.72601        31.41589         4.86623
O         24.24543        38.68819         0.35002
O         19.36401        21.20484        -0.85962
O         11.06787        31.61601         4.19627
O         25.49227        37.22305         4.69508
O         30.51580        24.81848        -1.05794
O         16.38189        18.77686        -0.86217
O         24.58824        48.35018         1.29391
O         19.47304        40.54748        -2.03056
O         30.96716        44.71312        -0.27990
O         19.89717        33.84257         4.71265
O         21.82320        35.36734         1.73986
O         21.23616        45.66384         0.41693
O         18.96156        48.12274        -4.08391
O         19.83028        48.20718        -0.62472
O         16.36966        26.74583         4.69623
O         26.86150        47.20575         1.90701
O         24.50740        17.20336        -2.58134
O         22.07984        17.71721         1.06895
O         25.35505        23.72978         1.93101
O         32.81680        24.88432         1.71588
O         23.80721        44.66385        -1.83872
O         18.00583        42.95043        -2.97799
O         30.64284        41.75859         4.22758
O         21.32768        22.57676        -1.21167
O         24.65207        51.45569        -3.18244
O         14.42311        34.98760         3.19098
O         20.93446        43.27713        -2.52885
O         20.57340        11.10061        -0.46469
O         32.77415        33.42871         4.03633
O         27.41720        50.73542         1.19317
O         27.07603        39.30752         0.89403
O         12.18984        28.93232         4.64948
O         32.73808        22.57185         0.64836
O         27.06194        17.69442        -0.07726
O         36.59816        35.59547         3.69652
O         35.00562        33.59351         0.11304
O         26.77826        26.45362        -0.23332
O         27.58656        41.62265         3.60313
O         23.33959        50.63141         0.06325
O         21.68991        28.76205         4.42762
O         23.65693        58.52017        -2.86134
O         26.00410        11.29588        -1.26074
O         24.21872        22.80271        -1.62958
O         12.33451        33.72548         0.55488
O         22.95587        37.25495         4.22237
O         33.40580        31.09692        -0.14961
O         15.44421        41.45142         0.67108
O         29.47007        19.74623        -3.30292
O         36.63935        27.42872         0.48072
O         27.51211        22.42858         1.48233
O         12.33945        22.96407         0.81470
O         17.85695        22.19209         3.09523
O         35.15735        29.58479        -1.29683
H         34.51234        30.31820        -1.46208
O         32.42415        21.71263        -3.60114
H         32.12280        22.64501        -3.55319
O         28.98931        39.93711         5.00362
H         28.88072        40.89702         5.19239
O         21.69643        51.38125        -4.93262
H         21.83070        50.40784        -4.80993
O         30.87504        48.20104        -1.52271
H         31.01605        47.22961        -1.56004
O         22.73948        24.64666        -1.12963
H         22.41680        24.04235        -1.83889
O         16.99315        50.35341        -1.88068
H         16.16932        50.88394        -1.91577
O         21.60680        48.71243        -3.81276
H         20.81898        48.29898        -4.25443
O         23.98134        40.64428        -1.29982
H         24.40244        39.75615        -1.21087
O         16.98427        16.43780         1.91020
H         17.04510        15.45963         1.95744
O         25.58854        20.92123        -2.58375
H         25.26252        21.80205        -2.88045
O         14.48723        29.79336         5.24512
H         13.56466        29.72291         5.59111
O         18.39501        18.65210         2.28689
H         18.09179        17.72200         2.43554
O         24.55562        33.35691         5.22102
H         23.76656        33.66738         5.71493
O         13.33944        35.73118        -1.18043
H         12.91991        34.88682        -0.89487
O         20.43128        15.61914        -2.65826
H         19.55048        16.04888        -2.71330
O         28.10689        24.58868         2.66524
H         27.63171        23.73643         2.82746
O         17.35224        34.07003         0.44922
H         17.45186        34.70386        -0.30134
O         23.79207        15.85907         0.69457
H         23.47125        16.46088         1.40736
O         26.47317        44.11548        -1.42768
H         25.67502        44.25172        -1.99613
O         25.63880        32.11831         1.07692
H         24.81308        32.58290         0.82385
O         24.28352        55.97569        -5.30426
H         24.14572        55.01919        -5.47270
O         15.60202        21.22535        -0.69981
H         16.12685        20.63972        -1.29669
O         30.62288        27.05664         3.15469
H         31.37665        27.44029         3.65252
O         33.22370        40.90286         4.92956
H         32.37954        41.36331         5.15208
H          4.91128        30.99638         1.35112
H          4.98643        33.42204         0.87440
H          7.34642        26.75694         2.14943
H          6.11491        28.87780         1.81123
H          6.27932        35.45751         0.46717
H          7.56804        37.46766        -0.12059
H          9.73492        22.60834         2.85748
H          8.57520        24.65543         2.44535
H          8.92651        39.41273        -0.96743
H         10.29361        41.23376        -1.91939
H         12.33251        18.39209         1.17757
H         11.28528        20.18006         2.39765
H         11.56664        42.80447        -3.03979
H         13.10828        45.00507        -3.89708
H         14.70721        14.38723        -0.70736
H         13.46619        16.38622         0.13360
H         14.08592        47.27210        -3.80755
H         15.27797        49.43321        -4.09387
H         17.10402        10.42922        -2.20557
H         15.93334        12.35501        -1.28340
H         16.61211        51.64804        -4.53284
H         17.95732        53.66186        -5.02300
H         19.35885         7.07941        -4.92450
H         18.28465         8.67131        -3.51044
H         19.14238        55.77821        -5.24080
H         20.33949        57.88221        -5.62098
H         22.44285         4.72768        -7.74003
H         20.41205         5.52541        -6.53927
H         23.61274        61.42727        -5.66542
H         21.54940        60.09652        -5.90621
H         24.67422         5.71328        -7.24080
H         26.06284         7.35731        -6.09071
H         26.90864        58.49172        -3.59731
H         25.66485        60.50156        -4.67463
H         27.46139         9.00170        -4.97692
H         28.82187        10.84159        -4.12272
H         29.11018        54.74481        -1.23137
H         27.98417        56.64129        -2.28479
H         30.09286        12.87719        -3.61302
H         31.31942        15.03189        -3.31284
H         31.61405        50.61456        -0.25683
H         30.34944        52.74121        -0.51749
H         32.54976        17.14592        -2.91539
H         33.81178        19.26483        -2.45883
H         34.09214        46.56943         1.44481
H         32.80492        48.63208         0.76131
H         34.89473        21.77786        -2.71039
H         36.03173        23.80828        -2.22392
H         36.55343        42.45185         2.76018
H         35.34733        44.50895         2.12509
H         36.76503        25.93883        -2.51606
H         38.21622        28.20172        -2.46770
H         38.89751        38.40066         2.07343
H         37.74437        40.37235         2.68943
H         39.52997        30.54262        -2.03796
H         40.74298        32.42526        -1.45403
H         40.94942        34.65338        -0.43636
H         39.97311        36.48941         0.87877
