         200
 CSIRO Nanostructure Databank - Neutral Graphene Oxide Data Set
C        -11.06174         0.63743         0.27474
C         -9.83302         1.36245         0.62778
C         -8.54254         0.66593         0.65915
C         -7.34923         1.36329         0.36001
C         -6.14248         0.67807         0.08801
C         -4.91517         1.40703        -0.14530
C         -3.72640         0.68413        -0.42991
C         -2.51574         1.45019        -0.74038
C         -1.15142         0.66688        -0.60225
C          0.00501         1.45753        -0.23503
C          1.18896         0.77147         0.29911
C          2.48134         1.46113         0.19466
C          3.68636         0.73232         0.29072
C          4.92549         1.44482         0.29429
C          6.16689         0.71702         0.28190
C          7.41157         1.43840         0.18325
C          8.63634         0.71170         0.04714
C          9.86959         1.43189        -0.08078
C         11.09463         0.67705        -0.19025
C         -9.85909         2.74389         0.61548
C         -8.63946         3.56863         0.72314
C         -7.34033         2.82124         0.49920
C         -6.18703         3.54146        -0.10189
C         -4.90116         2.82743        -0.17484
C         -3.71764         3.58140        -0.36631
C         -2.47123         2.89256        -0.54747
C         -1.23184         3.58216        -0.51945
C          0.00565         2.85451        -0.34740
C          1.23698         3.57793        -0.14967
C          2.47414         2.86391         0.02421
C          3.70992         3.57322         0.10929
C          4.91418         2.85860         0.27555
C          6.18442         3.60507         0.57011
C          7.42845         2.84658         0.19340
C          8.64866         3.56448         0.02838
C          9.86061         2.83069        -0.10436
C         -8.62830         5.04269         0.51783
C         -7.46086         5.74543         0.31041
C         -6.22270         5.03690        -0.11926
C         -4.92410         5.73477        -0.14297
C         -3.74085         5.01247        -0.34511
C         -2.48590         5.77015        -0.71085
C         -1.20912         5.00827        -0.45339
C         -0.00440         5.70225        -0.29010
C          1.23626         4.98821        -0.17087
C          2.48134         5.70590        -0.10110
C          3.70056         5.01024         0.01900
C          4.95258         5.72374        -0.01415
C          6.17208         5.03379         0.09764
C          7.41487         5.72277        -0.04325
C          8.62887         4.98910        -0.02907
C         -7.36964         7.18244         0.35693
C         -6.15751         7.85039         0.26042
C         -4.90762         7.14427         0.07508
C         -3.66546         7.83111         0.14469
C         -2.46120         7.17143        -0.14182
C         -1.21924         7.86119        -0.09395
C          0.00589         7.15432        -0.21899
C          1.24098         7.85077        -0.20406
C          2.47638         7.14145        -0.18576
C          3.71145         7.84708        -0.23090
C          4.94293         7.14414        -0.18591
C          6.19204         7.84713        -0.26860
C          7.39349         7.13838        -0.22638
C         -6.09246         9.30772         0.31642
C         -4.92551         9.96849         0.45600
C         -3.63253         9.23507         0.70408
C         -2.39189         9.98558         0.30721
C         -1.20883         9.31085         0.05699
C          0.04423         9.99658        -0.08438
C          1.24724         9.29977        -0.19921
C          2.50422         9.98197        -0.28715
C          3.70728         9.28885        -0.31816
C          4.97827         9.97047        -0.41104
C          6.15747         9.28649        -0.39833
C        -11.25265        -0.68653        -0.01011
C        -10.27828        -1.73318         0.27147
C         -8.43553        -0.72634         0.79701
C         -7.33323        -1.47217         0.32297
C         -6.13908        -0.74657         0.02083
C         -4.93354        -1.45419        -0.25367
C         -3.70888        -0.73058        -0.43018
C         -2.46585        -1.46957        -0.47368
C         -1.21112        -0.77360        -0.34317
C         -0.03007        -1.46714        -0.02633
C          1.18736        -0.73836         0.37496
C          2.47633        -1.44295         0.30220
C          3.68921        -0.71300         0.32302
C          4.92533        -1.42187         0.28366
C          6.16407        -0.69703         0.25176
C          7.39992        -1.42201         0.15524
C          8.63022        -0.70961         0.05349
C          9.86557        -1.43724        -0.05579
C         11.09270        -0.68776        -0.17284
C         -9.93755        -2.87849        -0.38560
C         -8.69215        -3.62013        -0.07688
C         -7.41245        -2.89414         0.11313
C         -6.20623        -3.56514        -0.17483
C         -4.96747        -2.87384        -0.30030
C         -3.72237        -3.60078        -0.43158
C         -2.48732        -2.87018        -0.44984
C         -1.18804        -3.64149        -0.52124
C          0.01607        -2.87136        -0.05525
C          1.22668        -3.57314         0.14334
C          2.47257        -2.85252         0.22495
C          3.70145        -3.57142         0.22958
C          4.92922        -2.84780         0.24340
C          6.16707        -3.56500         0.18218
C          7.39786        -2.84524         0.13116
C          8.63715        -3.56569         0.03358
C          9.85444        -2.83368        -0.05277
C         -8.68660        -4.98914        -0.17455
C         -7.42966        -5.77040         0.13294
C         -6.24691        -5.01963        -0.43782
C         -4.95063        -5.77256        -0.62183
C         -3.71600        -5.00355        -0.48464
C         -2.44386        -5.73510        -0.39276
C         -1.33601        -4.93778         0.27785
C         -0.03263        -5.70358         0.45073
C          1.23955        -4.99801         0.23605
C          2.45266        -5.71686         0.24599
C          3.69425        -5.00154         0.20288
C          4.92942        -5.70802         0.16257
C          6.16147        -4.98734         0.13832
C          7.40713        -5.70157         0.06093
C          8.61609        -4.97935         0.01133
C         -7.40694        -7.23622        -0.23766
C         -6.22135        -7.92945        -0.36297
C         -4.93978        -7.23998        -0.41154
C         -3.75425        -7.93934        -0.32821
C         -2.45792        -7.23449        -0.33269
C         -1.25880        -7.96028         0.10626
C         -0.02676        -7.22139         0.39791
C          1.25825        -7.90565         0.22358
C          2.45685        -7.16686         0.22882
C          3.70905        -7.85943         0.14367
C          4.92891        -7.13943         0.12202
C          6.18398        -7.84050         0.04773
C          7.38214        -7.12771         0.02062
C         -6.16985        -9.38211        -0.39859
C         -4.99367       -10.06706        -0.32406
C         -3.71747        -9.38603        -0.23292
C         -2.50605       -10.05517        -0.12413
C         -1.24040        -9.36054         0.03445
C          0.01417       -10.03787         0.10047
C          1.24616        -9.33600         0.11617
C          2.50506       -10.00500         0.05348
C          3.70848        -9.29705         0.07188
C          4.98200        -9.97443         0.00468
C          6.15785        -9.28275        -0.00370
O         -1.75516         0.99684        -1.89480
O         -5.81902        -5.38356        -1.77119
O         -0.06764        -6.46449         1.70713
O         -9.48125        -1.42315         1.40075
O          0.99163         0.07668         1.59124
O         -0.94383        -4.01622        -1.90460
H         -1.00939        -3.21040        -2.45797
O         -2.54945         5.93700        -2.17964
H         -3.43905         6.29027        -2.39480
O         -3.54058         9.09260         2.17634
H         -2.70810         8.60937         2.36621
O          6.23681         3.70092         2.05493
H          7.06191         4.18278         2.27892
O         -7.23793        -5.72432         1.59082
H         -8.05749        -6.05788         2.01235
O         -6.49551         4.25334        -1.35407
O         -7.73209         3.22503         1.85325
O         -2.11522        -6.48819        -1.59812
O         -1.81495        -4.57355         1.58888
H         -1.42214        -5.21371         2.22786
H         12.03863        -1.24333        -0.25560
H         12.04212         1.22779        -0.28641
H         10.80792         3.37795        -0.22310
H          9.57989         5.52844        -0.15167
H          8.34758         7.67916        -0.31815
H          7.11228         9.82806        -0.47208
H          4.97614        11.06749        -0.49455
H          2.50814        11.08211        -0.31896
H          0.05386        11.09622        -0.04528
H         -2.38221        11.08115         0.41588
H         -4.91188        11.06844         0.49391
H         -7.03757         9.86516         0.22433
H         -8.28903         7.76212         0.53192
H         -9.56404         5.59354         0.70281
H        -10.81351         3.26131         0.42858
H        -11.91745         1.30171         0.06454
H        -12.21320        -0.98096        -0.46260
H        -10.56530        -3.25778        -1.20599
H         -9.62342        -5.52841        -0.38429
H         -8.35250        -7.80028        -0.18435
H         -7.12181        -9.93252        -0.44165
H         -4.99937       -11.16738        -0.31675
H         -2.49836       -11.15585        -0.12411
H          0.02990       -11.13658         0.04752
H          2.52469       -11.10326        -0.01328
H          4.98697       -11.07353        -0.04265
H          7.11579        -9.82107        -0.05687
H          8.33575        -7.67413        -0.03811
H          9.56740        -5.52819        -0.05864
H         10.80411        -3.38410        -0.13232
