         320
 CSIRO Nanostructure Databank - Neutral Graphene Oxide Data Set
C         30.20791        31.60175        -0.63757
C         30.24224        32.82979        -0.75840
C         30.17878        36.05229        -0.67788
C         30.36223        37.26224        -0.43896
C         30.43756        40.41432         0.34638
C         30.37743        41.60531         0.69291
C         32.59140        28.74052        -0.60996
C         31.50982        29.32394        -0.55207
C         32.69030        31.53149        -0.45951
C         31.14709        30.64075        -0.03038
C         32.66090        33.00774        -0.67580
C         31.35755        33.75714        -1.15044
C         32.60258        35.95779        -0.92697
C         31.36253        35.11462        -0.45285
C         32.73064        37.29507        -0.13525
C         31.44155        38.15283        -0.19373
C         32.80419        40.14273         0.40544
C         31.50472        39.46943         0.15741
C         32.82003        41.63548         0.76900
C         31.50174        42.20918         1.50627
C         32.91595        44.04205         1.88320
C         31.77718        43.71227         1.48970
C         35.22710        27.66549         0.76795
C         35.05448        28.77503         0.01490
C         33.97507        29.18027        -0.97081
C         35.17821        31.53591        -1.09738
C         33.89344        30.76795        -0.97837
C         35.23931        33.01653        -0.67626
C         33.92921        33.78385        -0.89731
C         35.15875        35.96795        -1.18489
C         33.90513        35.14659        -0.87206
C         35.26089        37.34699        -0.45946
C         33.91716        38.16498        -0.66562
C         35.22506        40.32537        -0.16522
C         33.96665        39.50649         0.06134
C         35.34655        41.38364         0.94166
C         34.10601        42.01417         1.53198
C         35.11317        43.82078         3.09426
C         34.13323        43.38312         2.21526
C         35.70459        45.13975         3.10726
C         37.52634        27.76256         1.46544
C         36.28000        27.24503         1.41561
C         37.51282        29.19177         0.85260
C         36.40168        29.46845        -0.16573
C         37.82249        31.54160        -1.01790
C         36.48256        30.78219        -0.89553
C         37.75724        33.05191        -1.00711
C         36.44047        33.71719        -1.36775
C         37.73797        35.93063        -1.05893
C         36.45067        35.18766        -0.97305
C         37.77214        37.42279        -1.01814
C         36.45666        38.17265        -0.99174
C         37.73781        40.16215        -0.22693
C         36.53793        39.53071        -0.32127
C         37.73494        41.65998         0.00144
C         36.73542        41.96587         1.17015
C         38.09069        44.08071         1.77799
C         36.79401        43.49878         1.20434
C         38.01676        45.54485         2.16930
C         36.76429        45.73597         2.85841
C         40.08420        25.60805         3.11776
C         38.95041        26.06211         2.84479
C         40.01187        27.66709         1.42158
C         38.75426        27.44303         2.27960
C         40.11880        28.87971         0.52776
C         38.85493        29.67944         0.37464
C         40.13752        31.72295        -0.07493
C         38.94637        30.98364        -0.14331
C         40.21614        33.01270        -0.78737
C         38.93249        33.72819        -1.05072
C         40.21758        35.92601        -1.00475
C         38.97431        35.17541        -1.52741
C         40.21334        37.41373        -1.53252
C         38.95828        38.08941        -1.00007
C         40.22706        40.28095        -0.82932
C         39.06076        39.41627        -0.28569
C         40.34431        41.60709        -0.04510
C         39.08939        42.29145         0.37054
C         40.42352        44.45014         0.91513
C         39.08555        43.80767         0.61303
C         40.42235        45.69493         1.48120
C         39.17052        46.27095         2.07596
C         40.50158        48.25581         2.73174
C         39.48041        47.57012         2.60548
C         42.66464        25.70299         2.90622
C         41.34264        25.83494         2.48007
C         42.36255        27.52724         0.84807
C         41.15399        26.90404         1.49571
C         42.57658        28.98964         1.35332
C         41.28433        29.75937         1.02997
C         42.63085        32.00709         0.78162
C         41.30007        31.22569         0.68809
C         42.71818        33.26517        -0.10178
C         41.52707        33.74374        -0.84813
C         42.75655        36.03399        -0.85095
C         41.54085        35.19714        -1.36830
C         42.78616        37.37850        -1.63117
C         41.52102        38.13450        -1.28267
C         42.75752        40.42176        -1.33641
C         41.59549        39.53014        -0.74395
C         42.85995        41.77836        -0.59600
C         41.61819        42.41530        -0.07788
C         42.92782        44.45072         0.62369
C         41.57902        43.95615         0.06858
C         42.91391        45.95694         0.81724
C         41.61781        46.63760         1.27389
C         42.99656        48.54731         1.92755
C         41.87316        47.68837         2.47720
C         43.87120        26.04870         2.91932
C         45.20394        27.50006         1.45136
C         44.70554        27.17865         2.78212
C         45.14005        28.83436         0.64310
C         43.81016        29.62961         0.70740
C         45.18262        31.76567         0.05417
C         43.83402        31.09462         0.39714
C         45.12744        33.28854         0.45997
C         43.92395        33.91318        -0.23245
C         45.26132        35.94182        -0.79350
C         44.05701        35.26260        -0.79405
C         45.30539        37.47776        -0.78581
C         44.09319        38.17098        -1.41779
C         45.44708        40.47165        -1.23537
C         44.11779        39.67729        -1.38958
C         45.34381        41.75117        -0.40132
C         44.10379        42.62434        -0.89093
C         45.40546        44.57648         0.14338
C         44.08476        43.96853        -0.20826
C         45.27761        46.17620        -0.03034
C         44.06282        46.69245         0.68649
C         43.90914        47.99240         1.29424
C         47.15747        27.24259         0.09628
C         46.30642        26.79710         0.96110
C         47.79489        28.59264         0.15862
C         46.43305        29.60910         1.02486
C         47.53647        31.82667         0.87265
C         46.42540        31.07803         0.66186
C         47.60144        33.34975         0.84301
C         46.42710        33.98253         0.13881
C         47.78862        35.96004        -0.45962
C         46.48229        35.24560        -0.38116
C         47.85721        37.40119        -0.84401
C         46.61830        38.16373        -1.29688
C         47.85462        40.31121        -0.70515
C         46.66308        39.62790        -0.86275
C         47.83731        41.78797        -0.62449
C         46.67050        42.48459        -0.51497
C         47.92837        44.63440        -0.17457
C         46.61215        43.99431        -0.63031
C         47.67137        45.97558         0.24452
C         46.64487        46.64550         0.44067
C         50.25995        28.70614         1.19767
C         49.07065        28.63470         0.87104
C         49.93267        31.69498         0.36383
C         48.83919        31.28516         1.35323
C         50.10813        33.18861         0.40416
C         48.93541        33.91851         0.42458
C         50.30213        35.83365        -0.30174
C         48.97181        35.41888         0.36611
C         50.31202        37.33029        -0.69221
C         49.08897        38.16454        -0.34381
C         50.35059        40.29807        -0.84262
C         49.14609        39.62290        -0.76642
C         50.40254        41.74951        -0.70192
C         49.12011        42.54288        -0.92348
C         50.41474        44.36838         0.01485
C         49.09478        43.95407        -0.30266
C         51.42355        29.38134         1.49332
C         52.50238        31.62296         1.29103
C         52.27540        30.29728         1.53315
C         52.38768        32.83877         0.98423
C         51.42297        33.76757         0.53852
C         52.68038        35.95952        -0.17286
C         51.53370        35.28418         0.55579
C         52.69556        37.11775        -0.60771
C         51.61143        38.02727        -1.00422
C         52.69725        40.22696        -0.25072
C         51.69834        39.53246        -1.13671
C         52.70935        41.46992        -0.17667
C         51.60135        42.37076        -0.28366
C         51.51286        43.78216        -0.02951
O         37.20492        35.43592         0.23030
O         48.98927        42.87639        -2.41503
O         36.20710        38.57174        -2.42258
O         39.86636        41.54245         1.34269
O         44.29242        38.94167        -2.63577
O         48.18335        36.35938        -1.81705
O         50.77157        37.50304        -2.07444
O         36.68411        29.50565        -1.59233
O         33.76960        38.48529        -2.00578
O         49.00627        30.82100         2.47636
O         42.70740        32.37657         2.15775
O         41.13519        32.83943        -1.95080
O         34.76028        40.91431         2.20785
O         32.80477        32.41379         0.69746
O         38.67215        44.47151        -0.59675
O         43.08658        26.99526         0.03380
O         50.42265        30.98441        -0.48671
O         40.89226        30.70391         2.03290
O         43.44810        30.12739        -0.62630
O         34.36996        31.27987        -2.27918
O         40.51456        28.39902        -0.78944
H         40.59977        29.16673        -1.39470
O         42.78052        37.08308        -3.04048
H         43.04933        37.90780        -3.50701
O         45.11176        46.51282        -1.38357
H         45.79762        46.05038        -1.91888
O         45.24877        37.81269         0.63042
H         44.42372        37.41849         0.99845
O         46.64929        29.47715         2.41909
H         47.45413        30.00328         2.68554
O         39.86133        40.57375        -2.17542
H         40.67210        40.71437        -2.72359
O         41.19417        47.46254         0.16800
H         41.22454        46.92442        -0.65155
O         37.31783        42.30878        -1.20585
H         36.45604        41.90805        -1.51837
O         42.31497        46.99492         3.60907
H         42.46769        47.62627         4.34219
O         45.70492        44.28020         1.53630
H         44.86136        44.35007         2.04879
O         36.28714        33.65995        -2.80623
H         36.40527        32.72872        -3.09905
O         50.38910        35.06080        -1.50642
H         50.64290        35.66999        -2.24013
O         45.34597        31.72241        -1.36942
H         44.87064        30.92139        -1.69414
O         38.79880        28.40409         3.36757
H         38.17210        28.10506         4.06000
O         37.28885        41.30410         2.31827
H         36.51951        41.04069         2.88443
O         42.57330        36.41590         0.55625
H         42.82496        35.64121         1.11005
O         37.03648        37.76189        -3.28641
H         37.81013        38.34589        -3.49037
O         42.72675        28.95628         2.77680
H         42.24650        29.74359         3.13367
O         52.03936        39.82304        -2.48624
H         51.71854        39.08979        -3.05417
O         45.79532        40.91785        -2.58135
H         45.82039        40.09200        -3.12739
O         39.38759        39.03275         1.09189
H         38.70386        38.39749         1.40030
O         45.02102        27.90783         3.83405
H         45.62990        28.64379         3.55596
O         48.87470        35.90146         1.71019
H         48.34547        35.24328         2.23387
O         38.27192        31.27247        -2.38370
H         38.09952        30.31662        -2.55918
O         41.93270        39.37820         0.69237
H         41.10550        39.02060         1.13049
O         45.12671        41.41912         0.97805
H         45.33160        42.22963         1.50545
O         35.52217        37.20414         0.92518
H         34.70128        36.88600         1.37982
O         32.35175        36.29910        -2.29969
H         32.94058        37.08823        -2.52457
O         35.51593        33.03631         0.73499
H         34.67247        32.83227         1.20492
O         31.43086        41.74781         2.81718
H         30.62943        42.10495         3.25001
O         47.93579        29.21018        -1.07542
H         47.10868        29.05677        -1.58488
O         49.04000        38.27131         1.09635
H         48.15974        38.60762         1.36450
O         51.49691        35.73243         1.88986
H         52.18551        35.27045         2.40996
O         41.38819        44.48890        -1.25482
H         40.41311        44.58586        -1.40335
O         46.64038        38.17013        -2.73712
H         47.12703        37.35810        -3.01894
O         35.02030        40.96519        -1.45545
H         34.65100        40.25180        -2.04665
O         35.05925        36.22760        -2.59460
H         35.13187        35.37334        -3.07491
O         36.12233        44.14748         0.41816
H         37.86700        44.01164        -0.95858
O         40.03111        35.94274         0.41501
H         40.82685        36.36081         0.82522
O         38.96524        35.10493        -2.96426
H         38.11313        34.69498        -3.24078
O         37.16231        30.07677         1.95802
H         37.83670        29.92858         2.66663
O         45.29633        28.51875        -0.74868
H         44.56146        27.90171        -0.98415
O         32.96354        37.01898         1.25567
H         32.32635        36.31421         1.53656
O         31.45228        34.86862         0.95370
H         30.65428        34.36613         1.22492
O         40.06259        37.40383        -2.97729
H         40.72947        36.75562        -3.32640
O         47.50146        33.71109         2.26256
H         46.50552        33.65177         2.45721
O         31.07355        30.62172         1.34364
H         31.21865        31.53219         1.68213
O         42.41832        40.76991        -2.68769
H         43.10242        41.41751        -3.00325
O         46.47985        44.27335        -2.06003
H         47.30553        43.92912        -2.49165
O         41.62299        35.10838        -2.79075
H         41.18593        34.26325        -3.05803
O         38.54166        43.43356         2.97920
H         38.52475        42.45002         2.84391
O         43.04032        43.93617         2.01796
H         42.54657        44.54778         2.60917
O         44.13922        42.78733        -2.32532
H         44.91415        43.37087        -2.53362
O         48.68645        41.65525        -3.12533
H         47.70567        41.52838        -2.99473
O         32.89910        42.34719        -0.47601
H         32.06426        42.20038        -0.96954
O         34.31525        28.71129        -2.25804
H         34.45256        29.48949        -2.84690
O         42.61952        41.77852         0.87809
H         42.29582        40.84365         1.14845
O         35.85752        42.91246         3.78970
H         36.71237        43.31244         4.07024
O         31.42999        33.85410        -2.55187
H         31.55646        34.80218        -2.81121
O         44.99989        33.44560         1.86357
H         43.57981        32.86743         2.29715
