         762
 CSIRO Nanostructure Databank - Neutral Graphene Oxide Data Set
C         22.96183        24.79145        -1.40111
C         21.75091        25.55781        -1.43476
C         23.00260        27.64064        -1.14191
C         21.77622        26.92316        -1.29080
C         23.04024        29.01575        -0.85106
C         21.83786        29.80128        -0.80782
C         23.08964        31.84160        -0.29217
C         21.86353        31.14435        -0.57531
C         23.09912        33.20874         0.02915
C         21.91423        34.00938        -0.08100
C         23.05581        36.12877         0.55601
C         21.86834        35.35006         0.14396
C         23.03801        37.63205         0.31193
C         21.82840        38.28512        -0.25343
C         23.10740        40.28982        -0.98453
C         21.85748        39.52876        -0.76415
C         23.09506        41.78487        -1.29726
C         21.82280        42.52959        -1.23795
C         23.07573        44.64459        -1.26925
C         21.81666        43.87130        -1.21708
C         23.04209        46.16063        -1.08162
C         21.76690        46.85756        -0.89568
C         22.95112        48.82165        -0.13326
C         21.74445        48.13666        -0.40934
C         25.52082        23.27722        -1.94524
C         25.42186        24.57060        -1.25445
C         24.18226        25.39570        -1.32440
C         25.49054        27.53567        -0.78356
C         24.28877        26.90643        -1.45059
C         25.51999        28.91369        -0.57597
C         24.29465        29.69941        -0.60808
C         25.58176        31.78790        -0.17023
C         24.31829        31.07480        -0.33159
C         25.60267        33.15552         0.08763
C         24.35218        33.80378         0.64607
C         25.66448        36.09751         0.55446
C         24.35483        35.35652         0.71747
C         25.62350        37.58775         0.26800
C         24.34316        38.37074         0.16272
C         25.55977        40.38352        -0.70799
C         24.38982        39.70492        -0.52073
C         25.63353        41.77455        -1.31395
C         24.35181        42.54372        -1.10764
C         25.55755        44.66827        -0.74234
C         24.35045        43.92566        -1.00831
C         25.49454        46.08042        -0.49492
C         24.27551        46.80608        -0.60179
C         25.43317        48.92637        -0.05379
C         24.19845        48.18948        -0.25474
C         25.46851        50.32335        -0.07746
C         27.95934        23.20619        -1.57453
C         26.70125        22.60276        -1.96105
C         28.00653        24.58733        -1.29952
C         26.73382        25.25800        -0.93251
C         28.03880        27.46294        -0.63753
C         26.69598        26.72327        -0.59818
C         27.99644        28.93479        -0.66758
C         26.78158        29.62632        -0.44502
C         28.06315        31.75874        -0.39732
C         26.81256        31.04108        -0.31814
C         28.07338        33.15357        -0.30429
C         26.91333        33.85362         0.35123
C         28.04287        36.04893        -0.13613
C         26.88254        35.35573         0.12789
C         28.09354        37.49133        -0.19988
C         26.81697        38.18333        -0.39645
C         28.12883        40.36086        -0.69085
C         26.84228        39.64354        -0.72816
C         28.08831        41.81411        -0.77322
C         26.89162        42.51958        -0.89162
C         27.96709        44.63307        -0.22267
C         26.82589        43.95465        -0.66050
C         27.87934        46.00983         0.29975
C         26.66654        46.79651        -0.02588
C         27.85478        48.95879         0.51405
C         26.64832        48.18059         0.12387
C         27.89890        50.40755         0.16351
C         26.67983        51.04263        -0.04410
C         30.31824        20.27446        -1.44969
C         29.15739        21.01859        -1.56652
C         30.44068        23.10634        -1.52853
C         29.18131        22.43612        -1.58814
C         30.47244        24.54796        -1.54887
C         29.24643        25.30754        -1.39064
C         30.18225        27.62752        -1.68942
C         29.17893        26.74987        -1.24721
C         30.36488        28.93491        -1.22329
C         29.21144        29.65342        -0.82669
C         30.53412        31.76061        -0.88764
C         29.28217        31.06458        -0.70303
C         30.55081        33.13935        -0.85634
C         29.27787        33.86713        -0.71587
C         30.54112        36.08250        -0.47712
C         29.27324        35.37016        -0.61611
C         30.53512        37.45431        -0.28901
C         29.27963        38.19747        -0.33975
C         30.65697        40.27494        -0.73055
C         29.29950        39.63183        -0.51428
C         30.65926        41.78213        -0.49205
C         29.37087        42.54692        -0.71598
C         30.45854        44.64717         0.35516
C         29.29710        44.01765        -0.30418
C         30.47620        46.03741         0.62045
C         29.15275        46.72603         0.71212
C         30.43479        48.96042         0.71394
C         29.12665        48.22157         0.82017
C         30.40387        50.26987        -0.01331
C         29.16313        51.08091         0.00655
C         30.52704        53.06114        -0.53622
C         29.28093        52.42857        -0.31970
C         32.86190        18.76739        -1.00257
C         32.81850        20.12546        -1.27880
C         31.58881        20.89824        -1.39502
C         32.93425        22.96687        -1.37112
C         31.64796        22.31902        -1.46917
C         32.93769        24.38215        -1.27174
C         31.78666        25.13457        -1.47958
C         32.96720        27.26992        -0.96196
C         32.01834        26.55190        -1.63124
C         32.95812        28.75138        -0.79405
C         31.70247        29.54209        -0.97913
C         33.07215        31.63965        -0.66018
C         31.81818        31.01866        -1.27538
C         33.10702        33.12032        -0.68642
C         31.83289        33.88852        -0.97201
C         32.94934        35.89441         0.09433
C         31.85198        35.42096        -0.84204
C         32.91512        37.36819         0.42036
C         31.76110        38.15696        -0.04045
C         32.96664        40.20420         0.45048
C         31.80050        39.54806        -0.02850
C         32.85166        41.61784         0.97109
C         31.78123        42.43624         0.24952
C         32.91158        44.53996         1.13656
C         31.63267        43.84942         0.72910
C         32.96194        46.05835         1.27413
C         31.67148        46.73011         0.85885
C         32.99297        48.84772         0.35182
C         31.72256        48.20649         0.81420
C         32.98173        50.17074        -0.01044
C         31.72972        50.92788        -0.29690
C         33.01135        53.10595        -0.51806
C         31.74987        52.39941        -0.47325
C         33.12717        54.47006        -0.74990
C         35.32995        18.65486        -0.83024
C         34.07484        18.06924        -0.74744
C         35.40797        20.00652        -1.41154
C         34.10281        20.80545        -1.54106
C         35.43258        22.95047        -1.29670
C         34.16655        22.27037        -1.40831
C         35.41773        24.45985        -1.54173
C         34.19077        25.06578        -0.89006
C         35.41711        27.26864        -0.43528
C         34.15618        26.51185        -0.54914
C         35.29156        28.67361         0.10014
C         34.31892        29.46426        -0.80647
C         35.44284        31.57552         0.08132
C         34.22331        30.93240        -0.41589
C         35.44607        33.03540         0.23295
C         34.29263        33.79625        -0.09808
C         35.37065        35.87069         0.67879
C         34.24291        35.18032         0.16544
C         35.36372        37.31936         0.82994
C         34.18797        38.05828         0.65253
C         35.38170        40.19870         0.98508
C         34.15686        39.48829         0.71563
C         35.38297        41.63444         0.98815
C         34.16587        42.37473         0.96121
C         35.40631        44.49694         0.89663
C         34.18006        43.77703         0.99819
C         35.41982        45.93702         0.73607
C         34.21898        46.69265         0.71453
C         35.48641        48.71777         0.16211
C         34.24178        48.07835         0.40860
C         35.53068        50.12860        -0.27589
C         34.23111        50.86621        -0.37762
C         35.59580        53.05419        -0.34483
C         34.25454        52.35609        -0.23691
C         35.59677        54.46849        -0.74583
C         34.37923        55.12334        -0.87191
C         37.69074        16.03787         0.54872
C         36.52340        16.69108         0.19577
C         37.81056        18.64189        -0.41840
C         36.55284        17.99830        -0.35117
C         37.91219        20.05307        -0.85429
C         36.68673        20.78143        -1.29920
C         37.88732        22.94997        -0.94855
C         36.63456        22.25624        -1.18788
C         37.86318        24.39115        -0.77310
C         36.74089        25.26882        -1.27259
C         37.74331        27.20950         0.15851
C         36.59766        26.60776        -0.52358
C         37.76642        28.60368         0.57134
C         36.62377        29.37449         0.32737
C         37.74146        31.49255         1.05348
C         36.56081        30.80937         0.45795
C         37.90380        32.98462         0.79897
C         36.58190        33.73089         0.74287
C         37.68595        35.85031         1.57220
C         36.54611        35.12147         0.95207
C         37.74776        37.31734         1.44592
C         36.59432        38.02504         1.11674
C         37.81059        40.18641         1.33973
C         36.58647        39.47634         1.16089
C         37.81629        41.58588         1.20424
C         36.62293        42.33013         1.01801
C         37.85924        44.47506         0.82299
C         36.63252        43.77010         0.89650
C         37.89816        45.88480         0.69485
C         36.66966        46.60768         0.58186
C         37.97320        48.67044         0.18972
C         36.70872        48.01136         0.32796
C         38.01741        50.14476         0.07533
C         36.79444        50.89992        -0.18733
C         38.10031        52.95845        -0.68672
C         36.85013        52.25949        -0.43806
C         38.06428        54.36460        -1.02633
C         36.87207        55.10744        -1.00311
C         38.08559        57.23559        -1.20455
C         36.92487        56.54826        -1.06176
C         40.16748        14.48862         0.72933
C         40.18843        15.86773         0.41369
C         38.95968        16.64016         0.36969
C         40.31620        18.66123        -0.17187
C         39.01835        17.98452        -0.07010
C         40.34387        20.07639        -0.26276
C         39.02639        20.82302        -0.18524
C         40.33984        22.98635        -0.58754
C         39.05010        22.26227        -0.61856
C         40.30162        24.47000        -0.32486
C         38.92299        25.01368        -0.14938
C         40.56610        27.26420         1.02047
C         38.71502        26.27673         0.48655
C         40.37046        28.64574         0.98539
C         38.98933        29.17667         1.36061
C         40.29989        31.45369         1.35055
C         38.99393        30.71369         1.39889
C         40.28629        32.87827         1.75375
C         38.97287        33.60723         1.69411
C         40.25063        35.78418         1.99490
C         38.95796        35.09319         1.88589
C         40.24379        37.23396         2.24421
C         38.94584        38.02394         1.93466
C         40.24937        40.13037         1.81308
C         39.05389        39.47754         1.64307
C         40.29563        41.64196         1.84064
C         39.12442        42.25916         1.09510
C         40.35434        44.50131         1.10911
C         39.12680        43.74186         0.85879
C         40.38668        45.85316         0.82511
C         39.15243        46.56896         0.58386
C         40.45070        48.50969        -0.31156
C         39.18493        47.96573         0.32169
C         40.54044        50.03665        -0.48475
C         39.32400        50.85167        -0.23293
C         40.60409        52.92131        -0.78120
C         39.32591        52.26671        -0.64443
C         40.62229        54.29117        -1.31939
C         39.31252        55.01948        -1.47784
C         40.61880        57.29175        -1.45250
C         39.32970        56.55180        -1.57350
C         40.61103        58.66372        -1.43336
C         42.33909        14.18444        -0.26509
C         41.24580        13.66343         0.43926
C         42.38052        15.55336        -0.51973
C         41.38872        16.45754        -0.08261
C         42.79663        18.60985        -0.10811
C         41.53274        17.91400        -0.17899
C         42.76828        20.02530        -0.02022
C         41.56742        20.75465        -0.19031
C         42.85956        22.99290        -0.05735
C         41.61448        22.23607        -0.37196
C         42.87605        24.44708        -0.04439
C         41.58970        25.19893        -0.03489
C         42.83174        27.36115         0.27309
C         41.67122        26.59344         0.49294
C         42.74421        28.76939         0.42846
C         41.52454        29.42188         0.74591
C         42.75505        31.61242         1.00607
C         41.49280        30.85975         1.00551
C         42.75454        33.02016         1.41416
C         41.53866        33.66640         1.73188
C         42.70235        35.81441         2.27548
C         41.45731        35.08813         1.93706
C         42.73945        37.29830         2.28237
C         41.53180        37.96400         2.24136
C         42.77522        40.17601         2.41275
C         41.46705        39.43681         2.30309
C         42.96302        41.57620         1.83752
C         41.64069        42.26945         1.45223
C         42.73755        44.56126         1.88754
C         41.61660        43.75497         1.32391
C         42.75665        45.97080         1.42220
C         41.65639        46.57163         0.87637
C         42.75529        48.86445         0.85693
C         41.82454        47.90049         0.14343
C         42.83814        50.18198         0.54750
C         41.82015        50.82585        -0.29212
C         43.07624        53.01601        -0.31292
C         41.81346        52.30335        -0.42462
C         43.07920        54.39761        -0.53234
C         41.93520        55.06162        -1.20586
C         43.12765        57.40979        -0.94421
C         41.90825        56.56936        -1.36614
C         42.91658        58.83785        -0.68357
C         41.75080        59.43678        -1.04028
C         45.63493        16.08350        -0.71424
C         44.37907        16.69854        -0.68178
C         45.30302        18.64185         0.38078
C         44.13883        17.96528        -0.09419
C         45.25004        20.09229         0.70329
C         43.96286        20.80676         0.39692
C         45.31255        22.94230         0.02464
C         44.01278        22.26827         0.13425
C         45.33887        24.45841        -0.10114
C         44.05536        25.17669         0.00583
C         45.28234        27.33663         0.12344
C         44.09146        26.64226         0.09102
C         45.25605        28.82095         0.05167
C         43.94222        29.58422         0.17656
C         45.18436        31.79766         0.43771
C         43.93130        31.01035         0.59838
C         45.21006        33.17320         0.99806
C         43.99203        33.73395         1.46010
C         45.24932        35.86438         2.05430
C         44.00851        35.07925         2.06108
C         45.26912        37.28258         2.31967
C         44.02449        37.99613         2.35585
C         45.26614        40.13164         2.45903
C         44.04978        39.40915         2.43255
C         45.26645        41.61951         2.73937
C         43.90009        42.34262         2.81569
C         45.22508        44.68128         2.60944
C         43.91783        43.89511         2.56636
C         45.19328        46.12685         2.17601
C         43.88462        46.79880         1.88288
C         45.13269        49.00414         1.60555
C         43.83979        48.27173         1.68898
C         45.10668        50.34906         1.49759
C         43.79834        51.10603         1.28796
C         45.17160        53.27397         1.10008
C         44.25305        52.29390         0.37210
C         45.39679        54.62563         0.52531
C         44.29404        55.23272        -0.29760
C         45.36242        57.42161         0.16240
C         44.28379        56.71110        -0.33842
C         46.72376        16.71316        -0.12719
C         47.76157        18.67653         0.98482
C         46.56447        17.99311         0.42264
C         47.76667        20.18788         0.97003
C         46.51308        20.87848         0.66976
C         47.76247        22.99493         0.55402
C         46.54400        22.24544         0.44296
C         47.74498        24.43192         0.48637
C         46.59640        25.15881         0.22833
C         47.78811        27.36203         0.52024
C         46.61992        26.64077        -0.08446
C         47.75790        28.81566         0.67148
C         46.48440        29.57380         0.45716
C         47.81507        31.78078         0.47169
C         46.51075        31.06000         0.22945
C         47.74237        33.24324         0.87671
C         46.43169        33.85262         1.23007
C         47.65649        35.73182         2.38929
C         46.42407        35.14610         1.84459
C         47.78994        37.24945         2.54648
C         46.50814        38.01165         2.34628
C         47.76163        40.17913         2.14622
C         46.49314        39.42379         2.40757
C         47.75769        41.67956         2.07981
C         46.54035        42.40678         2.59648
C         47.80093        44.68617         2.27725
C         46.54885        43.92469         2.59915
C         47.70294        46.06548         1.66524
C         46.39384        46.75515         1.51627
C         47.55284        49.00556         0.95765
C         46.27297        48.20856         1.00026
C         47.51485        50.37374         0.72488
C         46.21067        51.13736         0.85806
C         47.69910        53.26483         1.45282
C         46.40068        52.52722         1.47707
C         47.72238        54.73240         1.32102
C         46.54639        55.44187         0.99636
C         46.49468        56.82096         0.75718
C         50.23154        18.69197         0.77926
C         49.09508        18.01073         0.97062
C         50.24126        20.12647         0.30572
C         49.02953        20.90723         0.76079
C         50.28681        23.02341         0.60976
C         49.01640        22.29322         0.65015
C         50.29603        24.42171         0.70165
C         49.00775        25.13545         0.84277
C         50.33119        27.31480         0.75444
C         49.02172        26.64045         0.83866
C         50.32462        28.77712         0.53415
C         49.04580        29.55352         0.50132
C         50.25604        31.64578         1.06859
C         49.06993        31.01919         0.76210
C         50.26975        33.13412         1.22472
C         48.95745        33.77740         1.53886
C         50.72259        36.02245         2.40375
C         48.83454        34.86365         2.33154
C         50.48475        37.38061         2.19076
C         49.14508        37.99747         2.54245
C         50.35961        40.24023         2.04418
C         49.07977        39.48554         2.36179
C         50.36134        41.73448         1.98388
C         49.04771        42.45793         1.88869
C         50.33508        44.73190         1.80788
C         49.04496        43.95132         1.85975
C         50.27594        46.19532         1.51077
C         48.94584        46.90469         1.61005
C         50.07509        48.99386         0.70508
C         48.85036        48.33881         1.19643
C         50.00320        50.38103         0.50214
C         48.77063        51.07454         0.63490
C         49.92003        53.34162         0.15216
C         48.89159        52.51411         0.91204
C         50.11619        54.67124         0.84510
C         49.03858        55.33920         1.33519
C         52.76215        20.20878         0.48229
C         51.53619        20.87803         0.52186
C         52.75809        23.02704         0.71101
C         51.52457        22.30245         0.60336
C         52.74100        24.43912         0.81993
C         51.52144        25.14525         0.80720
C         52.79370        27.32747         0.74365
C         51.51828        26.60939         0.82734
C         52.75367        28.77409         0.74362
C         51.58036        29.50637         0.76609
C         52.74379        31.62361         1.16777
C         51.54298        30.94223         1.02298
C         52.83578        33.05872         1.49247
C         51.57818        33.86069         1.40290
C         52.92336        35.98353         1.40236
C         51.75112        35.28421         1.80669
C         52.82818        37.42883         1.25684
C         51.56448        38.11982         1.55874
C         52.53288        40.25740         0.70045
C         51.48695        39.50920         1.41555
C         52.62188        41.73384         0.74617
C         51.58238        42.46654         1.47651
C         52.52209        44.62627         0.46609
C         51.56282        43.97838         1.37872
C         52.40654        46.05023         0.16720
C         51.34458        46.82105         0.68417
C         52.31723        48.84414        -0.29329
C         51.25730        48.22315         0.41450
C         52.43484        50.30600        -0.30829
C         51.24076        51.14299         0.23439
C         52.25831        53.11773        -0.79483
C         51.19049        52.56177        -0.13385
C         53.96953        20.90092         0.53687
C         55.25803        23.00701         0.64819
C         54.01097        22.30758         0.65061
C         55.30770        24.43849         1.01387
C         53.98716        25.19324         1.23621
C         55.26602        27.27389         0.42221
C         54.00853        26.62985         0.73367
C         55.26335        28.76158         0.34688
C         54.02704        29.51130         0.69832
C         55.21641        31.75909         0.36754
C         53.95137        30.99994         0.57783
C         55.46534        33.05866         1.13958
C         54.15027        33.81244         1.39369
C         55.35966        35.99328         0.92621
C         54.10369        35.27312         1.15647
C         55.29451        37.50178         0.77869
C         53.95256        38.12883         0.83325
C         55.09731        40.34903         0.36833
C         53.83171        39.51940         0.39003
C         54.91077        41.73939        -0.21259
C         53.70107        42.44044         0.19827
C         54.70422        44.60111        -0.65214
C         53.59622        43.88046         0.01310
C         54.46148        45.92326        -1.26380
C         53.36799        46.66603        -0.70672
C         54.20589        48.67528        -1.87360
C         53.31383        48.06815        -0.92247
C         54.12459        50.08072        -2.13991
C         53.32977        50.95012        -1.27233
C         53.29763        52.32845        -1.38045
C         57.64981        23.00751         0.02675
C         56.45230        22.36910         0.20238
C         57.83970        24.43124         0.34436
C         56.59764        25.19460         0.74017
C         57.68225        27.27693        -0.27144
C         56.49541        26.63041         0.38743
C         57.59539        28.71564        -0.69085
C         56.36923        29.49877        -0.33409
C         57.76185        31.65513        -0.13320
C         56.42218        30.98648        -0.15130
C         57.81488        33.14921         0.14402
C         56.56010        33.88752         0.47541
C         57.79238        36.04929         0.14426
C         56.52907        35.24324         0.40857
C         57.58052        37.47780        -0.33025
C         56.40900        38.21365         0.07627
C         57.42004        40.36022        -0.62915
C         56.27270        39.57069        -0.17652
C         57.21175        41.72593        -1.14221
C         55.97271        42.38458        -0.84281
C         56.80039        44.47503        -2.08485
C         55.90961        43.84984        -1.08603
C         56.51511        45.69362        -2.68834
C         55.31022        46.44952        -2.25475
C         55.44875        48.37143        -3.90598
C         55.02565        47.82043        -2.67377
C         55.33200        49.72673        -4.21268
C         54.74461        50.59414        -3.28986
C         60.12655        24.44932        -0.85767
C         59.10356        25.16577        -0.05998
C         60.08327        27.30408        -1.07684
C         59.10006        26.70770        -0.06858
C         60.10331        28.78857        -1.28833
C         58.79561        29.53683        -1.09211
C         60.07973        31.69753        -1.18588
C         58.85428        30.97020        -0.82805
C         60.07040        33.20228        -1.10104
C         58.88154        33.91677        -0.53006
C         59.79982        35.91674        -1.59315
C         58.79046        35.26157        -0.67384
C         59.72588        37.42350        -1.60189
C         58.64282        38.12336        -0.98738
C         59.60525        40.28475        -1.96534
C         58.67931        39.59779        -1.05260
C         59.46308        41.69805        -2.17243
C         58.27522        42.39012        -1.78719
C         59.23336        44.52240        -2.90337
C         58.13651        43.83210        -2.13112
C         58.81777        45.65671        -3.76692
C         57.49230        46.17760        -3.70312
C         58.05574        47.49429        -5.73594
C         57.15740        47.06439        -4.75511
C         60.98535        25.10076        -1.66806
C         60.94838        26.54294        -1.78713
C         61.35223        29.57219        -1.14916
C         61.34041        30.92113        -1.18809
C         61.30832        34.04176        -1.04800
C         61.17857        35.35910        -1.26304
C         60.65482        38.11586        -2.37583
C         60.57936        39.50278        -2.59506
C         60.49714        42.40153        -2.89515
C         60.39652        43.69637        -3.28139
C         59.73397        46.11815        -4.72980
C         59.37357        47.04702        -5.70057
O         56.23256        24.80192         2.10928
O         35.13551        24.49326        -2.92610
O         54.20042        31.74625        -0.67807
O         37.98902        35.41577         2.94618
O         39.33826        37.68391         3.30206
O         34.93758        52.81985         0.96952
O         48.92765        43.19813         0.61282
O         45.29680        45.76192         3.57838
O         58.58224        40.24134         0.26122
O         32.00396        43.99321         2.16667
O         45.43788        52.97580         2.49646
O         41.83297        42.87563         0.14138
O         46.10299        41.90656         3.90432
O         44.34347        20.48086         1.79713
O         34.85823        50.35149        -1.59327
O         47.97700        32.85801        -0.50768
O         53.58537        33.40851         2.70676
O         42.85446        44.48585         3.35319
O         58.21967        32.19334         1.16868
O         48.89563        25.84087         2.12936
O         32.73056        33.53774        -2.08448
O         49.85093        35.26400         3.18931
O         45.79145        31.59245        -0.89289
O         59.12182        44.71457        -1.45885
O         23.58644        35.78768         1.88192
O         41.52583        54.41081        -2.45212
O         55.02883        29.21337         1.74365
O         47.55806        36.37710         3.69671
O         26.69457        38.60210        -1.79248
O         25.92840        37.09664         1.59872
O         46.95210        45.93883         0.40954
O         50.94795        33.77455         0.06995
O         23.59585        38.41169         1.41860
O         49.68889        29.17275        -0.76247
O         47.58490        40.87365         0.86197
O         25.99196        24.51624         0.10157
O         38.03051        31.13462         2.43107
O         40.15578        47.98514        -1.59642
O         34.78397        20.21507        -2.70633
O         59.30617        29.18779        -2.43887
O         44.57856        29.33364        -1.12723
O         29.06527        34.75486        -1.94828
O         40.98381        25.22139        -1.39313
O         38.85879        50.71122         1.15837
O         23.16769        45.53095        -2.42646
O         45.36928        51.55073        -0.40210
O         52.86126        39.74091        -0.65873
O         43.37519        35.17113         3.40077
O         59.85525        32.59000        -2.41842
O         55.84874        47.51620        -4.93378
O         50.67849        41.07252         3.23332
O         42.89177        57.02164        -2.34108
O         55.73095        36.89841         2.04951
O         52.18434        43.31502         2.51822
O         48.95616        47.91671         2.65719
O         39.32740        42.74444        -0.25186
O         32.51771        36.33084         1.40950
O         39.55824        26.47945         1.57325
O         55.92574        44.60171         0.19367
O         31.80837        42.37152        -1.20478
O         46.91558        29.28352         1.83292
O         30.97642        50.20785        -1.36247
O         45.45280        54.58166        -0.94110
O         45.46494        23.60296        -1.29199
O         47.43549        44.46336         3.64840
O         41.39622        50.30498        -1.60981
O         32.15105        29.17015         0.36918
O         29.54103        43.57854        -1.71701
O         57.33982        27.63826        -1.65070
O         27.46946        26.95182         0.61151
O         23.17245        40.78348        -2.38093
O         31.17009        27.17324        -2.55204
O         28.30346        46.09228         1.72009
O         49.17920        38.89782         3.69631
O         28.29572        48.70834         1.90940
O         43.46551        47.71416         2.97768
O         50.64203        45.68632         2.84891
O         39.41343        33.03036         2.94169
O         41.17331        22.60994        -1.74026
O         56.06067        30.39763        -1.43872
O         39.19757        55.70308        -2.75863
O         43.38400        16.02091        -1.38026
O         34.12090        25.46037         0.52699
O         37.71802        20.31317        -2.26340
O         41.94485        40.03019         3.59148
O         58.96717        24.64671         1.29975
O         48.75933        52.77813         2.34268
O         31.15842        48.95195         1.98017
O         47.59419        19.38621         2.24355
O         52.40138        50.83375         1.05284
O         24.35361        33.36937         2.05490
H         23.80297        34.03110         2.54192
O         37.25077        25.67077        -2.56450
H         36.58699        25.29537        -3.22043
O         38.66090        20.84231         1.24073
H         39.43661        21.14540         1.75798
O         56.00437        32.65826         2.41436
H         55.28821        32.75275         3.08592
O         59.48419        35.51165        -2.95663
H         59.58120        34.53459        -3.02576
O         59.52436        27.17013         1.23315
H         59.40919        26.41121         1.85588
O         46.83760        26.69886        -1.55009
H         46.07484        26.26080        -1.98756
O         34.84546        29.42796        -2.14835
H         34.21873        29.89745        -2.74047
O         50.07083        20.03427        -1.15981
H         50.20410        20.93189        -1.53306
O         31.95468        31.09312        -2.72067
H         32.15855        32.03932        -2.93621
O         45.83583        48.09062        -0.38394
H         46.28750        47.31126        -0.78094
O         38.47384        33.13486        -0.54397
H         37.80613        32.83686        -1.19871
O         53.82047        25.32475         2.67989
H         54.72401        25.44068         3.05882
O         30.91687        40.08709        -2.14940
H         31.53428        40.80138        -2.42708
O         55.40218        40.56012         1.78228
H         56.25524        41.04087         1.84835
O         58.40712        36.20203         1.46417
H         57.71110        36.57784         2.05667
O         32.42689        41.42066         2.34650
H         32.33692        42.31696         2.75708
O         25.76709        41.60033        -2.75579
H         24.93836        41.16273        -3.06787
O         33.07203        46.32946         2.70901
H         32.35596        45.81663         3.14770
O         49.27831        53.60185        -1.13365
H         49.88233        54.15026        -1.67661
O         34.65487        28.61034         1.39970
H         35.04842        27.87053         1.90681
O         32.21890        35.96554        -2.13644
H         31.56587        35.64705        -2.79548
O         43.39216        42.14529         4.13199
H         44.06979        42.45174         4.77279
O         43.14924        51.54973         2.47623
H         43.82327        51.99622         3.03833
O         43.73232        41.38633         0.63088
H         43.31367        41.93438        -0.08004
O         42.51626        47.54273        -1.07146
H         41.80912        47.59215        -1.78069
O         38.76011        28.71940         2.71429
H         38.16907        29.38334         3.14175
O         27.13405        33.70591         1.80837
H         26.24498        33.59783         2.23328
O         40.09388        42.02487         3.22719
H         40.72934        41.50273         3.78011
O         24.52576        27.12192        -2.90401
H         23.69944        26.87151        -3.37107
H         22.88687        23.69456        -1.39239
H         20.79055        25.03090        -1.51212
H         20.81931        27.45839        -1.22822
H         20.86731        29.32198        -0.98966
H         20.90932        31.68609        -0.56115
H         20.98464        33.52896        -0.41521
H         20.91175        35.87024         0.00445
H         20.86132        37.76780        -0.18506
H         20.92718        39.96441        -1.15510
H         20.87601        41.97297        -1.25705
H         20.85990        44.41061        -1.22979
H         20.83556        46.37230        -1.21464
H         22.89629        49.86870         0.19122
H         20.78782        48.66152        -0.28119
H         24.62538        22.84174        -2.41094
H         24.54046        50.88964        -0.23266
H         26.72913        21.60266        -2.41635
H         26.64337        52.12482        -0.22919
H         30.24484        19.17919        -1.40750
H         28.19408        20.49155        -1.59531
H         30.51160        54.14539        -0.71308
H         28.38139        53.05749        -0.37036
H         31.92543        18.20800        -0.86683
H         32.22610        55.07564        -0.91923
H         33.98029        17.03271        -0.39466
H         34.35632        56.18684        -1.14514
H         37.61938        15.00996         0.92802
H         35.56797        16.16359         0.31681
H         38.08365        58.32243        -1.04893
H         36.01037        57.11353        -0.83880
H         39.27001        14.04636         1.18040
H         39.67487        59.21116        -1.60383
H         43.14230        13.53314        -0.63179
H         41.20414        12.59341         0.68315
H         43.71355        59.43046        -0.21552
H         41.62469        60.52047        -0.91096
H         45.74135        15.10822        -1.20502
H         45.37301        58.51574         0.06697
H         47.70773        16.22686        -0.12620
H         47.34313        57.45802         1.04132
H         51.18896        18.15828         0.86244
H         49.13960        16.95172         1.26937
H         51.11282        55.13655         0.85456
H         49.14933        56.37452         1.69357
H         52.79393        19.11502         0.39165
H         52.25281        54.19661        -1.01536
H         54.89990        20.31979         0.51486
H         54.01170        52.84657        -2.03548
H         58.51865        22.42056        -0.29759
H         56.41045        21.30324        -0.05960
H         55.68632        50.09626        -5.18323
H         54.68282        51.66517        -3.52308
H         60.19453        23.35914        -0.74510
H         57.70588        48.17975        -6.51796
H         61.73772        24.54536        -2.24408
H         61.65200        27.02529        -2.48075
H         62.30308        29.02711        -1.05341
H         62.28967        31.47598        -1.15340
H         62.28782        33.57953        -0.85668
H         62.05217        36.02780        -1.24866
H         61.44036        37.54676        -2.89233
H         61.29876        39.95330        -3.29121
H         61.40710        41.85109        -3.16856
H         61.21421        44.13549        -3.86820
H         60.76331        45.74034        -4.72740
H         60.10654        47.39374        -6.44056
