         720
 CSIRO Nanostructure Databank - Neutral Graphene Oxide Data Set
C         22.88045        27.23570         0.94810
C         22.93386        28.54080         1.33681
C         22.88286        31.54357         1.15052
C         22.89535        32.88720         0.93480
C         22.89363        35.86601         0.94572
C         22.90199        37.25458         1.00626
C         22.91285        40.28825         1.17974
C         22.99699        41.64318         1.25307
C         23.23687        44.48576         0.48119
C         23.26519        45.79924         0.24034
C         25.31540        24.47294         0.23056
C         24.14827        25.11775         0.43223
C         25.30557        27.33086         0.33518
C         24.00104        26.59546         0.17520
C         25.28437        28.70538         0.68391
C         24.11370        29.33573         1.15275
C         25.36069        31.56043         1.29136
C         24.10292        30.78578         1.61732
C         25.31977        32.95678         1.15199
C         24.10441        33.67407         0.99978
C         25.31805        35.86727         0.83271
C         24.10199        35.12757         0.89743
C         25.34288        37.28782         0.95969
C         24.10320        37.98318         1.05828
C         25.43452        40.17559         1.36722
C         24.09983        39.43938         1.35933
C         25.43266        41.65146         1.29518
C         24.25768        42.35475         1.33914
C         25.55335        44.58721         1.34477
C         24.21084        43.87296         1.46995
C         25.58706        45.94027         1.09266
C         24.25595        46.67496         0.98197
C         25.57781        48.63814         0.21440
C         24.38974        48.02599         0.34609
C         27.89871        23.06556        -0.40324
C         27.71229        24.50648        -0.48650
C         26.53432        25.17486        -0.15350
C         27.74420        27.30300         0.05968
C         26.52315        26.62934         0.01766
C         27.81192        28.73013         0.40437
C         26.54523        29.47823         0.63743
C         27.84125        31.50817         1.22823
C         26.61287        30.86783         1.16083
C         27.85958        33.00766         1.44852
C         26.60239        33.64443         0.88116
C         27.84999        35.86889         0.71635
C         26.58116        35.13216         0.66405
C         27.81951        37.26143         0.73232
C         26.60813        38.01210         0.91152
C         27.85151        40.18585         0.81049
C         26.66398        39.44357         0.98926
C         27.95843        41.61409         0.96657
C         26.74901        42.32542         1.42469
C         28.08698        44.49510         1.20298
C         26.80843        43.82672         1.51198
C         28.09099        45.97072         1.51757
C         26.83399        46.66931         1.00221
C         28.05043        48.78524         0.54995
C         26.83566        48.01752         0.63060
C         28.06953        50.13239         0.16594
C         30.39907        23.29341        -0.41449
C         29.12095        22.48056        -0.40826
C         30.18537        24.54688        -1.27294
C         28.89553        25.27358        -0.93103
C         30.25307        27.37055        -0.28564
C         28.94604        26.73577        -0.55059
C         30.31708        28.48906         0.52519
C         29.10397        29.26037         0.93683
C         30.41215        31.48382         0.96131
C         29.11449        30.74227         1.28955
C         30.34472        32.99807         0.99105
C         29.12095        33.70159         0.98396
C         30.30746        35.80922         0.63067
C         29.09183        35.12096         0.71848
C         30.37172        37.24827         0.38481
C         29.06630        37.99701         0.46526
C         30.40800        40.17170         0.56443
C         29.12517        39.44798         0.76445
C         30.32578        41.61072         0.11272
C         29.14295        42.32822         0.73229
C         30.49400        44.47229         0.61604
C         29.22340        43.77063         0.88576
C         30.57075        45.88049         0.68090
C         29.40262        46.66764         1.14331
C         30.56294        48.74208         0.17035
C         29.36003        48.13208         0.77477
C         30.51463        50.17139        -0.09281
C         29.26105        50.82246        -0.06977
C         32.95463        20.48237        -1.09036
C         31.80099        21.17553        -0.66570
C         32.67206        23.25141        -1.55904
C         31.64674        22.55370        -0.90983
C         32.63817        24.71839        -1.64975
C         31.42853        25.40922        -1.18905
C         32.75925        27.38484        -0.52554
C         31.47577        26.70356        -0.70415
C         32.79033        28.56840         0.28540
C         31.61808        28.92488         0.93347
C         32.89711        31.56784         1.29988
C         31.69913        31.01960         1.63957
C         32.87879        32.98709         0.91537
C         31.57388        33.66827         0.92995
C         32.81443        35.89905         1.09916
C         31.53948        35.12157         0.99805
C         32.82896        37.31847         0.73667
C         31.65536        37.98996         0.51413
C         32.85929        40.13108         0.32121
C         31.66217        39.41962         0.32358
C         32.85495        41.57675         0.21945
C         31.64892        42.31585         0.23175
C         32.89539        44.42811        -0.02522
C         31.67456        43.74178         0.28034
C         32.91904        45.81881        -0.10440
C         31.74706        46.56804         0.24409
C         32.87539        48.66871        -0.68887
C         31.72044        47.99346         0.02390
C         32.97014        50.13035        -0.32134
C         31.72914        50.89178        -0.23617
C         32.94377        52.99610        -0.53281
C         31.81866        52.32190        -0.15876
C         35.24616        18.84479        -1.91697
C         35.16049        20.30491        -2.19289
C         33.95114        21.08076        -1.83393
C         35.18401        23.29697        -1.85575
C         33.86932        22.55738        -2.17903
C         35.22887        24.64586        -1.56401
C         33.98770        25.47441        -1.55786
C         35.23787        27.45241        -0.58582
C         33.97665        26.80395        -0.92024
C         35.30479        28.67622         0.04620
C         34.03863        29.39281         0.34252
C         35.42686        31.49641         1.05709
C         34.11270        30.81310         0.86810
C         35.41910        32.90789         1.64883
C         34.20004        33.74603         1.14557
C         35.06139        36.03132         1.87323
C         34.10495        35.21280         1.31687
C         35.24829        37.40373         1.46857
C         34.17328        37.96516         0.55231
C         35.29114        40.16681         0.67356
C         34.11739        39.46336         0.52637
C         35.32786        41.58013         0.33535
C         34.10071        42.23911         0.09076
C         35.40050        44.29294        -0.57768
C         34.06028        43.59625        -0.53947
C         35.35257        45.68752        -1.04769
C         34.11142        46.49402        -0.70623
C         35.36354        48.63255        -1.06027
C         34.20061        47.95904        -0.63322
C         35.33602        50.03738        -1.34079
C         34.24542        50.84348        -0.79687
C         35.25462        53.01010        -1.77864
C         34.07384        52.28182        -1.16077
C         35.35463        54.47595        -1.67009
C         37.73815        18.86092        -1.80372
C         36.41609        18.18600        -1.83577
C         37.70948        20.39216        -1.70407
C         36.45683        21.06195        -2.26829
C         37.74795        23.29551        -1.96219
C         36.43956        22.57118        -2.17462
C         37.68439        24.69557        -1.51565
C         36.48896        25.35243        -1.37110
C         37.73820        27.43711        -0.64440
C         36.46901        26.87359        -1.25587
C         37.79498        28.88527        -0.31851
C         36.60573        29.35897         0.47181
C         37.81995        31.61147         0.47098
C         36.57571        30.87543         0.63382
C         37.83618        33.01704         0.74887
C         36.74002        33.62061         1.40841
C         37.88410        35.83952         1.45401
C         36.94153        34.94956         1.89574
C         37.77853        37.31640         1.75350
C         36.47181        38.03790         1.53012
C         37.77610        40.27257         1.18294
C         36.49811        39.49859         1.22334
C         37.86511        41.51896         0.31625
C         36.55725        42.25580         0.13554
C         37.95096        44.13983        -0.81619
C         36.58677        43.60552        -0.34931
C         37.95898        45.62124        -1.23379
C         36.63877        46.39499        -1.39368
C         37.60499        48.60264        -1.98857
C         36.55759        47.88729        -1.44330
C         37.80460        50.02041        -1.86293
C         36.50882        50.72894        -1.91597
C         37.83388        52.87414        -1.71314
C         36.53438        52.24803        -2.00852
C         37.80362        54.29944        -1.36995
C         36.54603        55.06817        -1.50111
C         40.26241        16.04807        -2.68641
C         39.07474        16.69181        -2.54782
C         40.30601        18.85574        -2.48695
C         39.01777        18.11971        -2.10555
C         40.30859        20.37105        -2.23244
C         38.99141        21.11057        -2.12934
C         40.23681        23.19294        -1.68461
C         39.02625        22.55227        -1.80717
C         40.27477        24.67555        -1.64676
C         38.97383        25.41632        -1.54177
C         40.26373        27.51036        -0.98552
C         39.01771        26.74950        -0.90008
C         40.16142        28.99779        -1.12586
C         38.94987        29.59938        -0.43647
C         40.19008        31.75930        -0.16716
C         38.99394        31.00504        -0.04124
C         40.21741        33.13645         0.19253
C         39.03709        33.78357         0.56295
C         40.29804        35.99582         0.88202
C         38.98427        35.30206         0.58027
C         40.28529        37.33186         1.16821
C         39.05929        38.08725         1.55227
C         40.23662        40.27031         1.24889
C         39.06997        39.55626         1.30832
C         40.28425        41.71128         1.02229
C         38.95680        42.44661         0.88665
C         40.22212        44.47776         0.29014
C         39.08652        43.73849         0.11813
C         40.33513        45.76162        -0.36712
C         39.29384        46.29709        -1.12407
C         40.44940        48.50273        -1.42508
C         39.47751        47.56597        -1.76469
C         40.33679        49.95056        -1.64024
C         39.05097        50.66522        -1.84047
C         40.28636        52.85745        -1.72592
C         39.03914        52.13536        -1.73584
C         40.32470        54.26539        -1.80833
C         39.14673        55.08234        -1.51341
C         40.30378        57.05431        -2.40369
C         39.17464        56.49990        -1.87801
C         42.74879        16.03367        -2.30113
C         41.53303        16.67173        -2.34487
C         42.72630        18.78124        -1.50909
C         41.46272        18.07503        -1.89146
C         42.69606        20.26879        -1.30597
C         41.50182        21.07010        -1.68847
C         42.67212        23.21472        -1.07634
C         41.46707        22.44336        -1.50010
C         42.70895        24.70241        -1.17925
C         41.50644        25.40126        -1.27022
C         42.72056        27.56502        -1.07304
C         41.47928        26.83690        -1.14507
C         42.68284        29.00213        -0.98618
C         41.47762        29.68153        -0.82982
C         42.76960        31.91673        -0.63804
C         41.41354        31.14188        -0.73514
C         42.76895        33.23743        -0.06469
C         41.53821        33.76881         0.59478
C         42.75352        35.88525         1.01578
C         41.55910        35.27539         0.73982
C         42.77900        37.27695         1.52439
C         41.56521        38.08086         1.19250
C         42.72418        40.28558         1.87817
C         41.54121        39.56037         1.31438
C         42.57199        41.81911         1.99015
C         41.44898        42.42625         1.14765
C         42.69815        44.67424         1.00150
C         41.34115        43.96901         1.21431
C         42.80364        45.87682         0.34837
C         41.65004        46.42122        -0.43276
C         42.94917        48.66997        -0.88525
C         41.69735        47.83975        -0.99583
C         42.69381        50.17337        -0.69146
C         41.50636        50.70527        -1.47854
C         42.76734        52.79189        -1.74707
C         41.53772        52.12651        -1.68641
C         42.84497        54.28893        -1.86078
C         41.52803        54.95425        -2.12642
C         42.77074        56.92420        -2.90383
C         41.52752        56.30366        -2.46980
C         43.96841        16.73235        -1.98459
C         45.29913        18.83306        -1.56573
C         44.01078        18.06225        -1.64598
C         45.29531        20.32942        -1.35009
C         43.98502        20.98616        -1.05205
C         45.27229        23.18970        -1.10652
C         43.97076        22.47992        -0.96690
C         45.21199        24.67734        -0.92512
C         43.91533        25.39577        -0.92004
C         45.16002        27.50097        -0.64145
C         43.93679        26.82550        -0.90135
C         45.27344        28.92268        -0.88444
C         43.96279        29.75120        -1.06021
C         45.26079        31.80430        -0.41429
C         44.02825        31.16662        -0.69632
C         45.30689        33.21782        -0.05373
C         44.03452        34.04194        -0.06809
C         45.30803        35.92455         1.02339
C         44.03895        35.09569         1.04269
C         45.32732        37.20061         1.62087
C         44.06431        37.97375         1.83830
C         45.27840        40.36265         1.72371
C         44.03013        39.52374         1.93216
C         45.24744        41.86986         1.83263
C         43.92570        42.60401         1.95387
C         45.27592        44.82148         1.52731
C         43.92501        44.08066         1.62753
C         45.25943        46.05549         0.64578
C         44.06805        46.62365         0.26262
C         45.24805        48.88703        -0.10689
C         43.95800        48.14282         0.14886
C         45.24685        50.16038        -0.63825
C         44.02297        50.84460        -0.99976
C         45.27488        52.87098        -1.73123
C         44.02497        52.12067        -1.54650
C         45.26227        54.19575        -2.23289
C         43.95966        54.72335        -2.81330
C         43.90892        56.21493        -3.06457
C         47.66886        18.85857        -0.84769
C         46.55660        18.15926        -1.19999
C         47.72689        20.30257        -0.75329
C         46.53018        21.05149        -0.91907
C         47.68282        23.21312        -0.41421
C         46.51214        22.45727        -0.77843
C         47.64053        24.56813        -0.10070
C         46.35566        25.28297        -0.19216
C         47.57383        27.53573         0.22871
C         46.29048        26.79877        -0.03830
C         47.68234        28.93355        -0.23588
C         46.50692        29.64260        -0.50206
C         47.75755        31.78143        -0.39093
C         46.47122        31.05658        -0.42170
C         47.76524        33.07599         0.39319
C         46.48614        33.86559         0.26518
C         47.76073        35.94147         0.86390
C         46.51822        35.25108         0.72434
C         47.77096        37.24822         1.41122
C         46.58713        37.71721         2.02013
C         47.74519        40.41685         1.15437
C         46.39777        39.85559         0.83425
C         47.73016        41.79078         1.29168
C         46.48873        42.59106         1.36379
C         47.81857        44.74255         1.34948
C         46.50808        43.95906         1.30118
C         47.74385        46.15294         0.78729
C         46.52349        46.77315         0.56418
C         47.80012        48.94524         0.12352
C         46.49078        48.23003         0.34019
C         47.80116        50.29582        -0.47654
C         46.53855        50.78722        -1.13326
C         47.67071        53.05980        -1.28221
C         46.49466        52.28561        -1.32443
C         47.61595        54.39946        -1.69122
C         46.44282        54.94154        -2.21792
C         50.15759        20.32288        -0.29967
C         48.94813        20.98684        -0.45707
C         50.04845        23.04287         0.52507
C         49.02071        22.51214        -0.50117
C         50.09727        24.56230         0.54505
C         48.74943        25.22686         0.75693
C         50.12705        27.53136         0.85415
C         48.78752        26.78057         0.69817
C         50.19971        28.88106         0.15334
C         49.04141        29.50274        -0.59806
C         50.36346        31.78787        -0.47938
C         49.03477        31.04080        -0.59929
C         50.25531        33.18352         0.12241
C         49.04105        33.87265         0.26278
C         50.24715        35.92898         0.80729
C         49.02271        35.25096         0.61002
C         50.28789        37.35475         1.22897
C         49.00462        38.09638         1.49554
C         50.19168        40.25086         1.14588
C         48.98598        39.60199         1.25458
C         50.19716        41.71667         0.85563
C         49.04704        42.52788         1.41868
C         50.29966        44.64376         0.80371
C         48.96696        43.92257         0.74347
C         50.30478        46.15356         0.94301
C         49.00037        46.84232         0.56105
C         50.25129        48.82223        -0.46494
C         49.02805        48.15169         0.12513
C         50.24672        50.33758        -0.40365
C         48.97378        51.00599        -0.54999
C         50.21996        53.09271        -1.17002
C         48.93358        52.52032        -0.63781
C         51.36617        21.02655        -0.07038
C         52.59097        23.10807         0.46671
C         51.37824        22.37206         0.25114
C         52.55572        24.48643         0.62782
C         51.30791        25.24674         0.61161
C         52.58406        27.39961         0.72207
C         51.37387        26.69801         0.64017
C         52.64297        28.82841         0.58050
C         51.42935        29.56366         0.25886
C         52.71248        31.68193         0.25735
C         51.50062        30.97743         0.08193
C         52.72775        33.11410         0.30857
C         51.48210        33.85844         0.34370
C         52.73086        35.95626         0.89851
C         51.46152        35.23986         0.65455
C         52.73145        37.43728         0.83092
C         51.54054        38.09926         0.97417
C         52.69446        40.27687         0.64681
C         51.53352        39.55878         1.35454
C         52.76002        41.76196         1.04602
C         51.47206        42.46346         0.64139
C         52.77962        44.60605         0.61703
C         51.48343        43.95306         0.71955
C         52.80170        46.07955         0.64316
C         51.51014        46.70879         0.15509
C         52.79934        48.99921        -0.01590
C         51.52286        48.22267         0.10627
C         52.70578        50.31231        -0.70583
C         51.43584        51.01379        -0.67746
C         51.38017        52.41295        -1.07871
C         55.04638        23.04564         0.36966
C         53.87403        22.40004         0.47870
C         55.06127        24.54625         0.22227
C         53.85865        25.13372         1.04954
C         55.13395        27.40130         0.84066
C         53.84124        26.66276         1.00511
C         55.14259        28.85414         0.58067
C         53.89909        29.53285         0.53980
C         55.17921        31.65130         0.37584
C         53.93429        30.95618         0.40721
C         55.18059        33.07336         0.30697
C         53.97316        33.77879         0.39146
C         55.27994        35.97147         0.56459
C         54.01632        35.21835         0.71965
C         55.21868        37.40339         0.68154
C         54.02140        38.11606         0.76435
C         55.18710        40.29316         0.58169
C         54.03173        39.56994         0.78405
C         55.18733        41.73785         0.46848
C         54.00662        42.46403         0.56588
C         55.22069        44.59027         0.17318
C         53.98458        43.89836         0.50604
C         55.23214        45.98049        -0.03858
C         54.11148        46.82441         0.38357
C         55.17931        48.79071        -0.91385
C         54.18363        48.34994         0.14559
C         54.98890        50.00441        -1.55046
C         53.79545        50.76492        -1.42502
C         57.38690        24.58026         1.30512
C         56.34429        25.20467         0.68710
C         57.58894        27.40864         1.01667
C         56.40636        26.68727         0.43499
C         57.60875        28.78218         0.90433
C         56.39259        29.53038         0.59778
C         57.65269        31.69831         0.64754
C         56.41701        30.94484         0.51660
C         57.68958        33.05875         0.48659
C         56.46641        33.80744         0.02647
C         57.74402        35.94032         0.42495
C         56.46931        35.26783         0.42444
C         57.72368        37.41099         0.28374
C         56.51577        38.17190         0.79092
C         57.73405        40.32679         0.43298
C         56.44420        39.56946         0.14821
C         57.68049        41.74661         0.48407
C         56.45209        42.42958         0.34507
C         57.68414        44.48528        -0.18711
C         56.44355        43.83797         0.10220
C         57.65146        45.76383        -0.88877
C         56.30941        46.57554        -0.82400
C         57.57847        48.54767        -1.59560
C         56.37505        48.01578        -1.09719
C         58.56483        25.29008         1.72832
C         59.84833        27.40345         2.03299
C         58.68554        26.65877         1.58027
C         59.95085        28.73770         1.83225
C         58.89389        29.48959         1.12201
C         59.97246        31.82792         1.59947
C         58.92927        30.98331         0.95727
C         60.01019        33.14403         1.35267
C         59.03492        33.75704         0.37332
C         60.18825        36.01914         0.48101
C         58.95609        35.27154         0.44765
C         60.24104        37.38154         0.46035
C         59.02424        38.17936         0.25859
C         60.17904        40.41341         0.60853
C         58.95992        39.65191         0.48621
C         60.18297        41.76588         0.70247
C         58.91403        42.55913         0.82759
C         60.11221        44.61917        -0.15271
C         58.92612        43.90230         0.11682
C         60.09486        45.90136        -0.70272
C         58.88297        46.52632        -1.07400
C         58.79181        47.84993        -1.55456
O         30.71863        31.07821        -0.35450
O         50.67473        42.00027        -0.50793
O         45.67095        41.02946         2.95761
O         43.25482        37.36369         2.91344
O         44.78831        29.35695        -2.19938
O         43.22807        20.45636         0.06702
O         34.33888        45.95000        -2.10112
O         26.64133        34.15551        -0.47287
O         31.69427        29.69503         2.08947
O         39.64101        20.94515        -3.42343
O         53.57697        46.60720         1.74012
O         34.16088        52.53482        -2.60806
O         29.69162        47.68999         2.15657
O         54.58576        27.16940         2.18117
O         47.87387        27.38413         1.67917
O         29.09863        29.70933         2.33244
O         53.45327        35.45125         2.08246
O         41.95311        31.84058        -1.89863
O         28.64862        26.29749        -1.93727
O         45.40599        19.78350        -2.70728
O         48.33967        31.64668        -1.76074
O         33.76408        33.37825        -0.18337
O         38.56762        54.73242        -0.20746
O         38.55470        47.92392        -2.74262
O         42.01159        46.66677        -1.84651
O         56.70503        45.79068        -1.99284
O         47.67886        32.68913         1.76224
O         38.59323        18.31839        -0.72139
O         58.29124        37.82510        -0.99824
O         33.99241        50.53723         0.62342
O         49.84102        37.65595         2.63074
O         38.33128        26.65732         0.45673
O         52.03496        48.93778         1.24767
O         29.95432        39.85807         1.92695
O         41.82171        38.92657         0.00159
O         35.97436        35.46807         2.76463
O         59.39853        30.12802        -0.13613
O         45.47593        24.09162        -2.25227
O         33.94710        30.54646        -0.59537
O         35.85050        20.59213        -3.48082
O         24.82479        39.69354         2.61433
O         27.19804        29.50262        -0.69803
O         36.41421        51.43685        -3.21513
O         47.13365        48.96767         1.45402
O         38.58137        37.72151         2.91114
O         46.15699        39.20001        -0.17026
O         37.16084        23.14641        -3.31216
O         43.28864        39.83167         3.13742
O         32.00640        35.65668         2.34392
O         43.24219        22.87670         0.24284
O         40.92114        44.21067         2.54941
O         43.84044        43.60324         3.01149
O         26.87185        42.99182         2.73236
O         29.64286        37.66145        -0.83855
O         33.26735        25.33520        -2.83302
O         41.78782        18.21916        -0.49293
O         39.64467        25.31730        -2.82996
O         36.98311        40.31661         2.38599
O         45.91459        25.89652         1.06307
O         37.30017        45.75909        -2.53631
O         34.61853        37.54146        -0.78924
H         34.00366        37.92720        -1.44938
O         27.96217        46.02071         2.96801
H         28.45824        46.82102         3.26446
O         49.54397        22.85977        -1.81481
H         48.91974        22.52412        -2.49217
O         50.22525        48.50606        -1.90441
H         49.41818        48.91595        -2.28667
O         32.49930        48.67594        -2.11352
H         32.78059        47.82058        -2.50593
O         30.65347        23.75617         0.93894
H         30.71445        22.97370         1.52552
O         52.40321        40.16254        -0.76504
H         53.15642        40.53357        -1.27099
O         43.74343        54.05839        -4.08558
H         44.44604        54.34524        -4.70479
O         42.29243        50.53592         0.65180
H         42.87363        50.06629         1.29861
O         48.85771        52.96606         0.75955
H         49.61769        52.57332         1.23949
O         43.60396        48.59101        -2.17972
H         43.37601        47.70856        -2.55880
O         37.61425        20.69750        -0.28197
H         38.12309        20.00157         0.19824
O         59.52278        33.46526        -0.97106
H         58.82995        33.78099        -1.59391
O         49.65317        22.58467         1.84336
H         49.10550        23.29192         2.26594
O         23.62104        26.71508        -1.25119
H         23.72389        27.65748        -1.50406
O         27.77085        33.24386         2.89541
H         28.47284        32.72164         3.33873
O         33.72784        22.66684        -3.62317
H         33.62249        23.62625        -3.82765
O         48.61801        43.74245        -0.64579
H         49.33797        43.20007        -1.05551
O         54.74075        48.89942         1.36674
H         54.12489        48.63203         2.08802
O         45.49585        45.43257         2.85401
H         44.99083        44.86579         3.49325
O         46.70870        38.63449         3.00539
H         45.85695        38.79946         3.46127
O         35.20110        32.76293         3.07595
H         35.99282        32.34357         3.47303
O         43.25307        54.77393        -0.54196
H         42.58751        54.47118         0.11146
O         54.82450        24.83396        -1.17423
H         55.37599        25.61171        -1.44020
O         54.04970        24.71382         2.41833
H         54.36911        25.49858         2.92352
O         56.49633        26.90610        -1.02379
H         57.41764        26.70992        -1.29805
O         46.66581        50.23850        -2.51022
H         45.76229        50.20077        -2.89580
O         48.34580        24.90618         2.12220
H         47.54323        25.45677         2.30543
O         50.50969        46.45404         2.34046
H         49.75836        46.05160         2.83805
O         30.05803        24.08718        -2.63525
H         29.73855        24.84949        -3.16689
O         52.85258        41.91535         2.48402
H         52.30147        41.22217         2.92527
O         44.07931        34.39208         2.32350
H         44.09789        35.07416         3.03162
O         23.73878        46.88840         2.32148
H         23.61406        45.99246         2.72737
O         33.72985        43.33360        -1.95916
H         33.81777        44.20682        -2.41945
O         38.22266        43.42278        -2.06472
H         37.74809        43.91558        -2.77727
O         23.70416        44.15100         2.81535
H         24.36563        43.79675         3.44950
O         36.45642        27.37767        -2.61785
H         35.61374        27.11064        -3.04282
O         56.76767        38.35587         2.21637
H         55.92587        38.62087         2.64492
O         48.10010        44.94969         2.77262
H         47.25167        45.31606         3.14930
O         51.76993        39.55405         2.79329
H         51.09100        38.94170         3.18129
O         39.94141        29.27095        -2.55880
H         40.69563        28.89546        -3.06165
O         49.37341        42.64883         2.81817
H         48.81161        43.36438         3.20662
O         50.82232        32.03651        -1.85290
H         50.01288        32.25081        -2.37541
O         38.57713        42.82180         2.22959
H         39.34443        43.36270         2.58952
O         30.04825        41.52558        -1.33167
H         30.37520        42.34680        -1.75644
O         43.50910        48.45928         1.50589
H         44.20759        48.15981         2.12795
O         24.02098        30.71762         3.09088
H         24.00689        31.63805         3.42963
O         43.99339        34.79649        -1.32593
H         43.97312        34.15326        -2.06652
O         51.42056        46.22196        -1.20560
H         50.80848        46.80572        -1.71758
O         49.21793        29.07908        -1.99371
H         48.78169        29.76703        -2.54868
O         36.84561        28.86845         1.84222
H         37.31476        28.00508         1.77227
O         58.78388        42.89291         2.26084
H         58.69898        42.04754         2.75114
O         50.23816        27.88029         2.27551
H         49.32615        28.08051         2.59520
O         41.67368        33.23401         1.97488
H         42.54970        33.55487         2.33020
O         42.05131        41.97749         3.32229
H         41.67335        42.90634         3.37280
O         38.64637        35.68756        -0.79735
H         39.33043        35.31911        -1.39597
O         38.28532        40.99722        -0.96546
H         38.33833        41.75019        -1.60934
O         56.27933        39.46287        -1.28714
H         57.06221        38.96353        -1.63189
O         56.58569        33.83333        -1.45410
H         56.49115        32.90827        -1.76960
O         40.49251        18.66064        -3.90947
H         40.03424        19.39933        -4.37546
H         21.95948        26.65294         1.09934
H         22.06825        28.99291         1.84253
H         21.93221        30.99700         1.06332
H         21.95354        33.38291         0.65755
H         21.92812        35.34373         0.97554
H         21.94217        37.78530         1.07292
H         21.93641        39.81652         0.99800
H         22.07221        42.23426         1.19601
H         22.51017        43.83813        -0.03097
H         22.55007        46.26286        -0.45639
H         25.35704        23.38176         0.36102
H         23.24603        24.55178         0.70900
H         25.60910        49.63995        -0.23409
H         23.46689        48.53718         0.03354
H         27.00764        22.42545        -0.32139
H         27.13038        50.69024         0.05952
H         29.18032        21.38426        -0.33719
H         29.20723        51.89428        -0.30290
H         33.03422        19.41772        -0.82889
H         31.02614        20.61729        -0.12346
H         32.95908        54.09429        -0.50464
H         30.94760        52.89425         0.19091
H         34.31100        18.26609        -1.89272
H         34.43469        55.07080        -1.75216
H         36.41707        17.09591        -1.69114
H         36.59848        56.15861        -1.38250
H         40.27415        14.99547        -3.00832
H         38.13424        16.15710        -2.74574
H         40.31513        58.11529        -2.69273
H         38.28317        57.12029        -1.71684
H         42.82131        14.97246        -2.58071
H         42.74846        57.99627        -3.15293
H         44.90772        16.16883        -2.08374
H         44.79164        56.70751        -3.50084
H         48.57115        18.28586        -0.59328
H         46.58045        17.06039        -1.17265
H         48.50574        55.03895        -1.62061
H         46.45027        55.98036        -2.57522
H         50.21460        19.22968        -0.39544
H         50.23917        54.13846        -1.50788
H         52.30415        20.46129        -0.15569
H         52.31694        52.90988        -1.36791
H         55.98787        22.48051         0.30598
H         53.86792        21.30374         0.55135
H         55.75565        50.37617        -2.24479
H         53.73107        51.70125        -1.99546
H         57.34878        23.49894         1.50043
H         57.60837        49.60615        -1.89080
H         59.37924        24.72035         2.19741
H         60.65824        26.85217         2.53310
H         60.86169        29.27282         2.13682
H         60.70429        31.36137         2.27584
H         60.77032        33.77849         1.83227
H         61.12838        35.45569         0.56854
H         61.20824        37.88665         0.59225
H         61.13899        39.87804         0.58310
H         61.14227        42.29358         0.80064
H         61.08414        44.17814         0.10691
H         61.04170        46.44172        -0.84656
H         59.71834        48.38650        -1.80619
