         324
 CSIRO Nanostructure Databank - Neutral Graphene Oxide Data Set
C          1.25614         2.05140         0.01449
C          1.24767         3.43404        -0.15692
C          2.44779         1.32637         0.17238
C          2.44737         4.18763        -0.22547
C          1.26315         6.36048        -0.38393
C          1.21085         7.71472        -0.41343
C          2.49083         5.60277        -0.30432
C          2.43030         8.53899        -0.50888
C          1.09284        10.64924        -0.24862
C          0.97331        11.96229         0.19465
C          2.34089        10.00542        -0.21067
C          2.12827        12.67075         0.54218
C          1.14005        15.72603        -0.13622
C          1.28874        16.82057        -0.98206
C          2.24905        14.95268         0.22640
C          2.57642        17.17340        -1.41010
C          2.77839        18.39955        -2.17888
C          3.68767         1.98012         0.14138
C          3.70859         3.43089        -0.16080
C          4.91787         1.30051         0.27302
C          4.98175         4.20537         0.13773
C          3.73983         6.32251        -0.15188
C          3.74278         7.80163        -0.37032
C          4.90000         5.67397         0.24174
C          4.94502         8.59875         0.06952
C          3.49353        10.74628         0.14044
C          3.41913        12.13789         0.41398
C          4.71098        10.00078         0.54735
C          4.62652        13.00414         0.70630
C          3.57238        15.21649        -0.21933
C          3.68821        16.39625        -1.00527
C          4.76040        14.40253         0.12813
C          5.01338        16.97847        -1.24704
C          3.98779        18.79813        -2.61599
C          5.20678        17.93388        -2.41212
C          6.12585         1.99564         0.49212
C          6.00149         3.42776         0.96810
C          7.36240         1.35356         0.47540
C          7.33154         4.17298         1.15397
C          6.25336         6.36843         0.27121
C          6.20125         7.89064         0.47675
C          7.34039         5.67022         1.08121
C          7.25344         8.57126         1.33752
C          5.88416        10.75498         1.06580
C          5.89511        12.26807         1.04800
C          7.18348        10.06509         1.30422
C          7.22913        12.92369         0.89721
C          6.03923        14.91195        -0.09077
C          6.20117        16.25331        -0.71102
C          7.28967        14.23957         0.29019
C          7.51829        16.67167        -1.28654
C          6.48239        18.71084        -2.24744
C          7.60735        18.09388        -1.73955
C          8.59787         2.04862         0.59273
C          8.61197         3.48888         0.83999
C          9.79891         1.35855         0.39906
C          9.76062         4.21872         0.62542
C          8.64519         6.37787         1.04494
C          8.58759         7.79719         1.48983
C          9.81327         5.66077         0.85335
C          9.89022         8.50301         1.52900
C          8.14277        10.89941         1.82868
C          8.33759        12.25812         1.37945
C         10.05264         9.80821         1.90680
C          9.73099        12.91421         1.50437
C          8.55042        14.78677         0.08321
C          8.74236        15.97784        -0.78062
C          9.79223        14.04639         0.46219
C         10.00020        16.75316        -0.71783
C          8.85415        18.75931        -1.64993
C         10.01786        18.13622        -1.13920
C         11.03634         2.04495         0.22099
C         10.98545         3.55711         0.02033
C         12.22475         1.38407         0.02304
C         12.27414         4.19615         0.53805
C         11.10590         6.33159         0.89204
C         11.13738         7.73181         1.33667
C         12.30580         5.66716         0.69526
C         12.44650         8.48004         1.34634
C         11.17122        10.67041         1.55488
C         11.03681        12.04679         1.41194
C         12.42797         9.96863         1.32536
C         12.34440        12.84179         1.49045
C         11.11665        14.75159         0.25036
C         11.14385        16.16695        -0.19730
C         12.34461        14.20754         0.85238
C         12.36036        16.91800        -0.09726
C         11.20725        18.88162        -1.01107
C         12.38843        18.30101        -0.49734
C         13.43072         2.13806        -0.48254
C         13.53509         3.47047         0.24753
C         14.74084         1.39973        -0.42239
C         14.78691         4.23877         0.11229
C         13.57637         6.35697         0.62227
C         13.64165         7.76904         0.82984
C         14.77943         5.65716         0.30143
C         14.83118         8.47719         0.65174
C         13.60689        10.65282         1.11006
C         13.60504        12.08012         1.11437
C         14.91967         9.89809         1.14785
C         14.80268        12.77807         0.95098
C         13.53207        14.90311         0.75288
C         13.55600        16.29382         0.32629
C         14.80451        14.21985         0.91405
C         14.76772        17.02620         0.34849
C         13.58649        19.04430        -0.38110
C         14.78605        18.43080         0.03825
C         15.94097         2.08586        -0.34209
C         15.95576         3.54028        -0.18077
C         17.19912         1.40438        -0.44328
C         17.20372         4.24336        -0.24450
C         16.00657         6.37831         0.12308
C         16.02472         7.80751         0.25558
C         17.21231         5.68033        -0.14326
C         17.22213         8.53928         0.00817
C         16.06661        10.66879         0.55873
C         16.03267        12.07309         0.63056
C         17.21385         9.99118         0.08874
C         17.21132        12.80922         0.33883
C         16.00174        14.92385         0.79754
C         16.00061        16.36951         0.65393
C         17.24734        14.22950         0.58719
C         17.19618        17.08508         0.70267
C         16.01032        19.14570         0.13687
C         17.21586        18.50150         0.48238
C         18.41666         2.09068        -0.44679
C         18.40295         3.52509        -0.34414
C         19.66899         1.38220        -0.60799
C         19.66662         4.26890        -0.33428
C         18.43025         6.41028        -0.34706
C         18.41465         7.84232        -0.32792
C         19.65122         5.72782        -0.57042
C         19.61357         8.54550        -0.65603
C         18.34576        10.74092        -0.33468
C         18.35086        12.14254        -0.17401
C         19.52546        10.01267        -0.86223
C         19.51762        12.98058        -0.51533
C         18.45314        14.94154         0.56923
C         18.43237        16.34618         1.15039
C         19.64013        14.32584         0.07717
C         19.73384        17.11772         0.94141
C         18.45140        19.22025         0.55008
C         19.69490        18.58501         0.72515
C         20.88633         2.02488        -0.72002
C         20.93163         3.49956        -0.55261
C         22.15144         1.34427        -0.80952
C         22.08025         4.23839        -1.14117
C         20.84743         6.42837        -0.86723
C         20.79677         7.86022        -0.95595
C         22.09687         5.72255        -1.05389
C         22.03176         8.60535        -1.31043
C         20.81175        10.78108        -1.09924
C         20.81556        12.26701        -0.93220
C         22.09337        10.05325        -1.01567
C         22.06564        12.94345        -0.63618
C         20.87112        14.99942        -0.00898
C         20.97858        16.40296         0.45933
C         22.06310        14.31720        -0.40237
C         22.14203        17.21909         0.08857
C         20.91910        19.27371         0.62692
C         22.16325        18.59750         0.41048
C         23.35968         2.01674        -0.93624
C         23.35051         3.45805        -1.31115
C         24.61849         1.35994        -0.71906
C         24.63272         4.22964        -1.32152
C         23.31938         6.38645        -1.16100
C         23.35433         7.85573        -1.31534
C         24.57616         5.69772        -1.12398
C         24.60244         8.58938        -1.02453
C         23.28968        10.69392        -0.78353
C         23.28273        12.13314        -0.42439
C         24.56703         9.99856        -0.82474
C         24.58195        12.83166        -0.20146
C         23.34305        15.05959        -0.53719
C         23.35101        16.54748        -0.36845
C         24.64013        14.31182        -0.41299
C         24.69222        17.23251        -0.04911
C         23.41716        19.28574         0.51861
C         24.64931        18.61783         0.47510
C         25.82921         2.03173        -0.68025
C         25.90157         3.47777        -1.00282
C         27.06976         1.39837        -0.33563
C         27.05506         4.23621        -0.49689
C         25.76091         6.41142        -0.89691
C         25.80354         7.84736        -0.87627
C         26.95192         5.68577        -0.41267
C         27.07952         8.52876        -0.87252
C         25.79325        10.71276        -0.68190
C         25.84732        12.10108        -0.42063
C         27.04946        10.00186        -1.01367
C         27.04340        12.81918        -0.19035
C         25.86549        15.00465         0.05668
C         25.85291        16.37284         0.27252
C         27.06324        14.19613         0.20332
C         26.98403        17.02152         0.94524
C         25.87805        19.24394         0.78479
C         27.08218        18.50654         0.95961
C         28.22972         2.11780        -0.11008
C         28.21879         3.57952        -0.10049
C         29.49785         1.43954         0.09332
C         29.43327         4.31015         0.14075
C         28.26927         6.46319        -0.22428
C         28.28258         7.85431        -0.68751
C         29.51538         5.68695        -0.10775
C         29.60455         8.48238        -0.85292
C         28.35408        10.75926        -0.88511
C         28.30392        12.05925        -0.16268
C         29.65751        10.02262        -0.89501
C         29.62070        12.76979         0.10175
C         28.29758        14.83596         0.51166
C         28.29045        16.20516         1.04851
C         29.55779        14.22584         0.30113
C         29.53132        16.96544         1.10308
C         28.27376        19.10358         1.32908
C         29.49072        18.32113         1.77015
C         30.63126         2.10596         0.39307
C         30.63900         3.58198         0.68646
C         31.92959         4.25729         0.30181
C         30.77960         6.37158        -0.17730
C         30.83241         7.76013        -0.44668
C         31.98042         5.56829        -0.02441
C         32.03262         8.52014        -0.40189
C         30.90404        10.71207        -0.51082
C         30.89405        12.11799        -0.26795
C         32.06950         9.91096        -0.43945
C         32.03888        12.93929        -0.27912
C         30.75704        14.98208         0.26612
C         30.71568        16.41535         0.58239
C         31.96976        14.30997        -0.02633
C         31.84967        17.25320         0.44262
C         30.70698        19.13969         1.46813
C         31.79393        18.61506         0.81852
O         11.96171         7.87844         2.59258
O         29.79719         9.21968        -2.10111
O         20.71110        16.63915         1.91865
O         27.36608         6.21888         0.90169
O         12.96000         3.46666         1.60633
O          5.07988        12.88880         2.09821
O          1.96408        13.92716         1.12633
O         19.96814        12.93921        -1.90325
O         25.54546         3.81965        -2.39704
O         10.57816        13.76205        -0.73288
O         10.95386         3.79378        -1.37685
O          5.62213        17.38623         0.02676
O         19.96602        10.37185        -2.21740
O          8.19464        15.72953        -2.15266
O          7.61058         7.95405         2.59158
O          4.70719         3.72915        -1.20588
O          3.25709         8.20994        -1.68867
O         27.68945        10.67804        -2.16866
O         27.38582        16.39556         2.20450
O          7.19082         5.00667         2.37456
O         23.82426        12.37573         0.96272
O          6.09534         8.54766        -0.83802
O         20.58586         3.92213         0.80154
O         24.11482        14.66927        -1.72767
O          4.89368        10.17309         2.00126
O         22.47353         3.73704        -2.45918
O         24.14641        17.19482        -1.40331
O         22.68072         8.25581        -2.56967
O         28.91459        12.00091         1.16231
O          9.09248        10.41425         2.71657
O         29.41341        18.09545         3.21996
H         28.63443        17.50772         3.36320
O         13.18390         2.42486        -1.88941
H         12.31630         2.94842        -1.92634
O         18.27406        16.18505         2.59232
H         19.17985        16.05688         2.95865
O          5.35006        17.08153        -3.59398
H          5.55357        17.65546        -4.36158
O         12.50065        13.09807         2.93814
H         12.73442        12.24668         3.36627
O          9.75125        13.57135         2.78907
H          9.71505        12.88403         3.48729
O          6.76365         6.14281        -1.07307
H          6.35901         6.82472        -1.66031
O         15.23311         9.78488         2.58569
H         14.57342         9.17613         2.98426
O         30.54944         3.68792         2.15515
H         30.43916         4.63801         2.37295
O          5.37290         3.29745         2.27649
H          5.80500         3.95875         2.87072
H          0.29720         1.51644         0.05730
H          0.27410         3.93658        -0.23028
H          2.40852         0.24245         0.35156
H          0.31127         5.81309        -0.37005
H          0.22847         8.20459        -0.38857
H          0.18968        10.10675        -0.55492
H         -0.01004        12.44029         0.28554
H          0.15534        15.45581         0.26608
H          0.42181        17.43197        -1.26792
H          1.88799        19.01494        -2.37961
H          4.93349         0.20129         0.20625
H          4.09540        19.72961        -3.19275
H          7.39521         0.27687         0.24457
H          6.54048        19.75047        -2.60572
H          9.76621         0.26817         0.24242
H          8.91715        19.80887        -1.97409
H         12.27297         0.28829         0.13864
H         11.21580        19.93583        -1.32475
H         14.74870         0.30833        -0.57034
H         13.58668        20.10954        -0.65504
H         17.19667         0.30930        -0.55321
H         16.01759        20.22510        -0.07583
H         19.62977         0.28475        -0.68244
H         18.43513        20.30556         0.36831
H         22.16102         0.25216        -0.66974
H         20.91360        20.37406         0.62499
H         24.60058         0.28564        -0.47913
H         23.40131        20.34475         0.81686
H         27.09377         0.30058        -0.25810
H         25.88543        20.32195         1.00627
H         29.51868         0.34760        -0.04456
H         28.33527        20.20236         1.33790
H         31.57630         1.55757         0.52487
H         32.86131         3.67932         0.39668
H         32.95576         6.03349        -0.22625
H         32.98338         7.99690        -0.22903
H         33.03977        10.40342        -0.28054
H         33.01701        12.49847        -0.51787
H         32.90539        14.88435        -0.06085
H         32.77681        16.86328         0.00254
H         30.71364        20.18995         1.79425
H         32.67031        19.25007         0.62278
