         732
 CSIRO Nanostructure Databank - Neutral Graphene Oxide Data Set
C         23.92240        24.78961        -3.92945
C         22.86177        25.53791        -4.43823
C         23.65682        27.57766        -3.36627
C         22.75682        26.93180        -4.17733
C         23.64283        29.06317        -3.22388
C         22.37890        29.81965        -3.22999
C         23.46025        31.83624        -2.28919
C         22.32036        31.11395        -2.82186
C         23.37962        33.21614        -1.90733
C         22.18373        33.99602        -2.09739
C         23.22884        36.05331        -1.27373
C         22.11984        35.34033        -1.81898
C         23.25089        37.46152        -1.10176
C         22.03368        38.21965        -1.17172
C         23.23097        40.34060        -0.95604
C         22.01710        39.58211        -1.07036
C         23.22708        41.75812        -0.95577
C         22.00208        42.53989        -0.85662
C         23.25280        44.56867        -1.49156
C         21.99482        43.88499        -1.00801
C         23.27612        46.07490        -1.38870
C         22.58100        46.84325        -2.30887
C         23.60983        48.90682        -1.48036
C         22.73354        48.24204        -2.35688
C         26.08554        23.21668        -2.66366
C         25.97697        24.63032        -2.49807
C         24.88765        25.36349        -3.09032
C         26.05555        27.52132        -2.52810
C         24.70383        26.78433        -2.61431
C         25.88270        28.91901        -1.88913
C         24.82244        29.75401        -2.59203
C         25.81314        31.79283        -1.56251
C         24.67975        31.14695        -2.09984
C         25.75199        33.15797        -1.20486
C         24.51671        33.85304        -1.35536
C         25.72261        36.03937        -0.72278
C         24.41175        35.26035        -0.93870
C         25.72264        37.49607        -0.83863
C         24.49002        38.18359        -0.92453
C         25.69201        40.35148        -0.83215
C         24.47278        39.62902        -0.90073
C         25.70546        41.76273        -0.76590
C         24.46948        42.46669        -0.90083
C         25.63475        44.58234        -0.54742
C         24.46609        43.88510        -0.89976
C         25.51442        45.98915        -0.12866
C         24.20054        46.75076        -0.48413
C         25.25439        48.84306         0.49553
C         24.31203        48.20732        -0.51012
C         25.34702        50.33770         0.33610
C         28.19261        23.07478        -1.43925
C         27.16799        22.47905        -2.18133
C         27.99354        24.49622        -0.96918
C         26.98389        25.30575        -1.75091
C         28.12920        27.42549        -1.13343
C         27.08010        26.73254        -1.72965
C         28.44574        28.85925        -1.51509
C         27.20235        29.66470        -1.85969
C         28.28605        31.77511        -0.90658
C         27.13617        31.12145        -1.56629
C         28.21796        33.19064        -0.73027
C         26.98512        33.84982        -0.89349
C         28.28748        36.07157        -0.71393
C         26.98070        35.30496        -0.97674
C         28.18893        37.52229        -0.47842
C         26.98023        38.17598        -0.74287
C         28.26646        40.40264        -0.58937
C         26.96958        39.63481        -0.90278
C         28.16320        41.83064        -0.30367
C         26.92826        42.49999        -0.53869
C         28.13798        44.70234        -0.30305
C         26.86054        43.90890        -0.38602
C         27.97807        46.10261         0.23819
C         26.72273        46.79771         0.15440
C         27.78417        48.94039         0.90996
C         26.60652        48.15503         0.39810
C         27.79953        50.38175         0.44417
C         26.52303        51.01918         0.30537
C         30.51604        20.20485        -0.78026
C         29.37162        20.89141        -0.95739
C         30.50973        23.03318        -0.60497
C         29.36438        22.35669        -1.00477
C         30.56370        24.50190        -0.59217
C         29.30037        25.24498        -0.82985
C         30.41913        27.38559         0.07339
C         29.18083        26.67766        -0.40669
C         30.48429        28.85918        -0.08130
C         29.42284        29.58903        -0.58995
C         30.45387        31.74170         0.23910
C         29.39426        31.03932        -0.46199
C         30.49940        33.13946         0.29335
C         29.39050        33.90718        -0.24888
C         30.35287        36.02295         0.72189
C         29.39519        35.29695        -0.18178
C         30.50484        37.50163         0.41149
C         29.38426        38.22769        -0.07048
C         30.52867        40.36022         0.43495
C         29.40807        39.64756        -0.06596
C         30.51026        41.79322         0.52982
C         29.31625        42.52171         0.19316
C         30.45023        44.63188         0.70435
C         29.28577        43.93155         0.30835
C         30.40216        46.08192         0.75158
C         29.14579        46.79297         0.61761
C         30.27184        48.97406         0.68884
C         29.09109        48.22143         0.73619
C         30.25723        50.37009         0.45841
C         29.02011        51.08151         0.31120
C         30.28913        53.18706        -0.05283
C         29.09408        52.49045         0.02843
C         33.10173        18.77424        -0.39773
C         33.06428        20.17255        -0.38552
C         31.83219        20.94765        -0.79834
C         33.01226        23.05038        -0.10910
C         31.70395        22.28061        -0.05630
C         32.99576        24.45546         0.01028
C         31.66014        25.12398         0.26630
C         32.85175        27.33858         0.41398
C         31.69185        26.64090         0.19968
C         32.81027        28.77178         0.68241
C         31.66878        29.50538         0.41514
C         32.75123        31.62467         1.41497
C         31.55191        30.92753         0.81542
C         32.68233        33.13046         1.70235
C         31.63860        33.88132         0.86098
C         32.71887        36.03780         1.67014
C         31.63884        35.25212         0.92539
C         32.84698        37.47558         1.19620
C         31.68050        38.19969         0.80300
C         32.88594        40.35391         1.16430
C         31.70605        39.63811         0.78031
C         32.87087        41.76692         1.30819
C         31.68104        42.49346         0.97034
C         32.90439        44.66826         1.19949
C         31.64452        43.92334         1.00707
C         32.82178        46.14744         1.23332
C         31.58245        46.79745         1.00794
C         32.83911        48.98413         0.73819
C         31.54134        48.27083         0.98360
C         32.79491        50.32137         0.08099
C         31.50679        51.07065         0.07730
C         32.80422        53.24472         0.06217
C         31.55076        52.54791         0.01001
C         32.86742        54.67039         0.07696
C         35.52221        18.78069        -0.12196
C         34.30477        18.08903        -0.24938
C         35.50161        20.20519        -0.05601
C         34.26237        20.89810        -0.17958
C         35.45902        23.06049         0.08182
C         34.23877        22.34785        -0.10075
C         35.43277        24.48413         0.18856
C         34.19046        25.17346         0.13807
C         35.39346        27.29955         0.70207
C         34.17446        26.67868         0.08746
C         35.33770        28.68814         1.19034
C         34.00604        29.45032         1.24132
C         35.26185        31.62406         1.23911
C         34.05105        30.93111         1.29743
C         35.30162        33.08872         1.33569
C         34.06022        33.80337         1.72343
C         35.32144        36.02044         1.39601
C         34.06690        35.31235         1.72466
C         35.32726        37.43613         1.35413
C         34.07517        38.16651         1.30025
C         35.33821        40.28088         1.48310
C         34.09887        39.59124         1.30144
C         35.32967        41.65020         1.88369
C         34.03374        42.45590         2.03109
C         35.21376        44.88876         2.35580
C         34.17374        43.96119         1.62395
C         35.29575        46.34491         1.84684
C         34.02130        46.89253         1.25393
C         35.33729        48.86991         0.58309
C         34.07752        48.20316         0.75866
C         35.34841        50.32100         0.25234
C         34.08872        51.07600         0.00647
C         35.25122        53.22739         0.46091
C         34.05621        52.54955         0.19172
C         35.28267        54.65385         0.48727
C         34.05871        55.34186         0.24778
C         38.05348        16.00550        -0.38830
C         36.84848        16.67887        -0.33373
C         37.99588        18.79146         0.09770
C         36.79422        18.07875        -0.10096
C         37.96658        20.22995         0.25343
C         36.72698        20.93286         0.11863
C         37.91886        23.07750         0.40475
C         36.70691        22.35658         0.19267
C         37.88669        24.50816         0.49753
C         36.65783        25.20378         0.38931
C         37.84367        27.37001         0.79205
C         36.60868        26.63284         0.62245
C         37.79282        28.76319         0.89197
C         36.56567        29.49032         1.09060
C         37.74318        31.65763         0.90153
C         36.49750        30.88700         1.10253
C         37.75768        33.14561         0.97842
C         36.47612        33.83058         1.25046
C         37.77626        35.98370         1.27804
C         36.52137        35.28122         1.32701
C         37.79703        37.40440         1.31755
C         36.56479        38.13209         1.33756
C         37.81734        40.24952         1.56594
C         36.57270        39.56030         1.45336
C         37.81837        41.62917         1.90233
C         36.56214        42.14928         2.30979
C         37.76183        44.66241         1.76832
C         36.60399        44.29809         2.40323
C         37.76947        45.97556         1.06508
C         36.48824        46.72412         0.98544
C         37.77478        48.94048         1.13399
C         36.52261        48.20154         0.78372
C         37.83552        50.30557         0.39014
C         36.56169        51.05412         0.55823
C         37.77650        53.22048         0.77152
C         36.47578        52.48266         0.97602
C         37.76517        54.59795         0.79515
C         36.52946        55.35081         0.71389
C         37.81921        57.45335         0.83327
C         36.60352        56.75564         0.76933
C         40.61020        14.56961        -0.40953
C         40.52123        15.93224        -0.19239
C         39.28307        16.67314        -0.20282
C         40.44760        18.80336         0.30649
C         39.26491        18.09435         0.06053
C         40.41125        20.19616         0.88116
C         39.15407        20.94959         0.51052
C         40.36890        23.08696         0.85851
C         39.15360        22.36641         0.57535
C         40.32310        24.51653         0.97204
C         39.10289        25.22707         0.76337
C         40.32662        27.33478         1.03585
C         39.10314        26.65164         0.83370
C         40.36229        28.79185         0.88790
C         39.04902        29.51288         0.79044
C         40.27719        31.67627         1.40960
C         39.00624        30.93566         1.21869
C         40.25780        33.15218         1.31309
C         39.04391        33.85067         1.22880
C         40.26979        35.97226         1.31471
C         39.02897        35.26873         1.27779
C         40.27223        37.41219         1.38087
C         39.05167        38.11528         1.37546
C         40.26750        40.28203         1.62412
C         39.05989        39.54980         1.49541
C         40.25484        41.72313         1.69347
C         39.01874        42.43352         1.84356
C         40.21820        44.56451         1.45866
C         38.99994        43.87035         1.73511
C         40.25084        46.01216         1.19944
C         39.05090        46.72400         1.02076
C         40.25698        48.85313         0.94644
C         39.05285        48.14466         0.96098
C         40.27686        50.34024         1.22816
C         39.04032        51.08966         0.80657
C         40.28964        53.18595         0.81859
C         39.01791        52.46054         0.85969
C         40.27560        54.55637         0.71707
C         39.04918        55.31852         1.14696
C         40.29963        57.50514         0.88903
C         39.05622        56.80487         0.87466
C         40.42559        58.85443         1.26511
C         43.03478        14.51732        -0.09128
C         41.88338        13.90297        -0.46293
C         42.97010        15.89293         0.52800
C         41.79987        16.67241        -0.03912
C         42.95781        18.83178         0.75215
C         41.76009        18.16245         0.19659
C         42.92584        20.22073         0.95182
C         41.68370        20.96629         0.50304
C         42.76778        23.03362         1.45774
C         41.62124        22.39627         0.99347
C         42.66873        24.46887         1.79994
C         41.49952        25.23023         1.32888
C         42.75688        27.37887         1.61314
C         41.52318        26.63995         1.35876
C         42.79769        28.79892         1.44574
C         41.57973        29.55156         1.22918
C         42.76977        31.70207         1.32431
C         41.55815        30.94140         1.28481
C         42.75630        33.09490         1.34129
C         41.49960        33.84371         1.32722
C         42.77243        35.99467         1.02229
C         41.49165        35.24808         1.28093
C         42.72015        37.40656         1.55412
C         41.52201        38.12251         1.55763
C         42.72212        40.29867         1.68826
C         41.51745        39.57216         1.66514
C         42.74099        41.72911         1.60534
C         41.48292        42.45158         1.63337
C         42.71395        44.63114         1.61713
C         41.44943        43.86511         1.52404
C         42.74710        46.05881         1.21883
C         41.48718        46.72997         1.08804
C         42.72568        48.86193         0.74142
C         41.48926        48.14570         0.91586
C         42.73140        50.28946         0.60416
C         41.53235        51.03702         0.77432
C         42.75204        53.13251         0.41575
C         41.52294        52.42914         0.64974
C         42.76833        54.54328         0.32541
C         41.49607        55.27337         0.32732
C         42.83770        57.44522         0.59385
C         41.52234        56.80280         0.44863
C         42.86341        58.77110         1.03782
C         41.67873        59.46457         1.33901
C         45.49986        16.06757         0.49096
C         44.25321        16.69893         0.54315
C         45.37955        18.77044         1.23443
C         44.19494        18.08756         0.85485
C         45.25535        20.12794         1.88718
C         44.05764        20.92027         1.42193
C         45.20807        23.00399         2.06304
C         44.02822        22.33004         1.63982
C         45.18181        24.44814         2.38658
C         43.91280        25.23112         2.17354
C         45.18690        27.39560         1.98608
C         43.96181        26.69649         1.92628
C         45.23183        28.80044         1.73104
C         44.01751        29.49395         1.50197
C         45.27812        31.68661         1.49900
C         44.04752        30.94031         1.07203
C         45.25842        33.09011         1.49717
C         44.00887        33.83418         1.40062
C         45.25485        35.95728         1.53539
C         44.01686        35.22281         1.40173
C         45.24608        37.34200         1.65857
C         43.97718        38.05698         1.87145
C         45.25280        40.29023         1.53004
C         43.99915        39.60827         1.89723
C         45.21501        41.69251         1.32878
C         43.97773        42.39945         1.50607
C         45.30154        44.58306         1.36447
C         44.02189        43.86144         1.66412
C         45.25736        46.06909         1.07669
C         43.94283        46.74403         0.99060
C         45.16344        48.82061         0.31216
C         43.94947        48.14547         0.66704
C         45.16527        50.23157         0.12150
C         43.95105        50.97091         0.32007
C         45.17465        53.08907        -0.03059
C         43.96357        52.39346         0.24550
C         45.19666        54.51579        -0.03421
C         43.98523        55.25589         0.17113
C         45.27810        57.33066         0.13140
C         44.02539        56.68790         0.28236
C         46.67236        16.76741         0.76461
C         47.84189        18.81339         1.59901
C         46.62482        18.10596         1.20212
C         47.77885        20.21059         1.89611
C         46.54032        20.91895         1.89256
C         47.68956        23.00686         2.48126
C         46.47703        22.31915         2.10055
C         47.78333        24.47428         2.64131
C         46.46938        25.21062         2.52064
C         47.76715        27.35594         1.90394
C         46.46144        26.62453         2.02825
C         47.72014        28.83576         2.01873
C         46.47008        29.54225         1.76816
C         47.74501        31.67037         1.54903
C         46.49515        30.95677         1.64697
C         47.72083        33.08797         1.38128
C         46.49451        33.80310         1.47200
C         47.72175        35.91136         1.30333
C         46.50742        35.22969         1.46700
C         47.78982        37.36552         1.48082
C         46.48971        38.12376         1.73918
C         47.65412        40.22464         1.01590
C         46.46525        39.57173         1.42594
C         47.62463        41.63565         0.78605
C         46.43064        42.38262         1.00036
C         47.59409        44.48184         0.40539
C         46.45731        43.80727         0.87468
C         47.57863        45.92351         0.16967
C         46.41600        46.68974         0.40121
C         47.56054        48.73109        -0.37230
C         46.38760        48.07766         0.09916
C         47.57454        50.17932        -0.53542
C         46.35994        50.92286        -0.24611
C         47.55108        53.05306        -0.67316
C         46.36328        52.34543        -0.32855
C         47.61188        54.44854        -0.56250
C         46.42831        55.20566        -0.23154
C         46.43321        56.61944        -0.13988
C         50.26800        18.87729         1.92957
C         49.08249        18.17275         1.69380
C         50.28796        20.26479         2.16005
C         48.98732        20.89095         2.25957
C         50.63928        23.27256         2.51341
C         48.80605        22.20725         2.74582
C         50.40298        24.58128         2.12092
C         49.14345        25.28018         2.45766
C         50.22636        27.37725         1.59723
C         49.08246        26.69923         2.06922
C         50.23470        28.79926         1.41722
C         49.05969        29.57614         1.81142
C         50.16611        31.65476         1.05042
C         48.98320        30.99239         1.45820
C         50.13340        33.06814         0.86195
C         48.92595        33.78174         1.08073
C         50.08021        35.90200         0.56638
C         48.91825        35.20650         0.98332
C         50.05685        37.34288         0.45869
C         48.92893        38.08478         0.89900
C         50.02368        40.16324         0.23899
C         48.87287        39.48592         0.74154
C         50.00398        41.58369         0.09485
C         48.80703        42.31650         0.36089
C         49.95800        44.36582        -0.32763
C         48.78324        43.72002         0.13772
C         49.87990        45.76214        -0.74967
C         48.71028        46.56976        -0.39755
C         49.97520        48.63314        -1.01457
C         48.73680        47.96604        -0.63259
C         49.86484        50.04569        -1.55308
C         48.71723        50.83426        -0.96777
C         50.03886        52.98108        -1.14510
C         48.69125        52.30112        -1.31797
C         50.03736        54.39809        -0.93802
C         48.88358        55.10382        -0.73562
C         52.75710        20.32374         1.66107
C         51.56189        21.00111         2.01651
C         52.71086        23.09232         1.28035
C         51.63631        22.42951         1.94739
C         52.61893        24.49820         1.04336
C         51.45581        25.23951         1.40591
C         52.56186        27.32613         0.72876
C         51.41585        26.64533         1.22913
C         52.57385        28.76299         0.63440
C         51.38598        29.48361         0.94648
C         52.55445        31.60992         0.43857
C         51.38023        30.92348         0.82399
C         52.52118        33.04323         0.25987
C         51.30797        33.76181         0.45614
C         52.39813        35.82109        -0.32761
C         51.26633        35.17204         0.24122
C         52.26057        37.24646        -0.70764
C         51.16867        38.02025        -0.08716
C         52.38659        40.12450        -0.54682
C         51.18335        39.42897        -0.15691
C         52.40512        41.53556        -0.49283
C         51.19076        42.26254        -0.27971
C         52.42847        44.38604        -0.61835
C         51.17712        43.67265        -0.45979
C         52.43821        45.76814        -0.71962
C         51.20569        46.49417        -0.99464
C         52.48255        48.61916        -1.11932
C         51.18940        47.96500        -1.01491
C         52.51291        50.06083        -1.44554
C         51.20186        50.80695        -1.58932
C         52.50695        52.90957        -1.32439
C         51.22064        52.27064        -1.34182
C         53.89225        20.98270         1.19714
C         54.97449        23.07338         0.27542
C         53.88855        22.37152         0.92882
C         54.83375        24.41732        -0.05218
C         53.70871        25.17168         0.41965
C         54.96984        27.28960         0.08047
C         53.70180        26.58467         0.34546
C         54.96253        28.75077        -0.06275
C         53.76034        29.45651         0.23432
C         54.96304        31.56022        -0.18507
C         53.76027        30.88329         0.15577
C         54.97661        33.03807        -0.13003
C         53.67910        33.74782        -0.12927
C         54.77603        35.75844        -1.13425
C         53.60528        35.11534        -0.48082
C         54.68599        37.18956        -1.56593
C         53.44131        37.99036        -1.29690
C         54.78104        40.12244        -1.13381
C         53.55625        39.44010        -1.00524
C         54.85948        41.48533        -0.68042
C         53.64745        42.23278        -0.59589
C         54.91989        44.34335        -0.70002
C         53.67916        43.65438        -0.57030
C         54.94152        45.77530        -0.68574
C         53.67654        46.53337        -0.36198
C         54.93996        48.65068        -0.84104
C         53.66612        47.95458        -0.86658
C         54.94785        50.09929        -0.93021
C         53.76459        50.80314        -1.16886
C         53.69585        52.22915        -1.24883
C         57.26447        23.10038        -0.60437
C         56.28546        22.46632         0.07330
C         56.97057        24.28225        -1.50605
C         55.76487        25.13387        -1.02191
C         57.22087        27.27076        -1.12343
C         56.13094        26.51148        -0.48556
C         57.25499        28.67176        -1.03354
C         56.11547        29.41855        -0.52327
C         57.31960        31.55593        -0.99469
C         56.12640        30.85356        -0.55478
C         57.38071        32.96899        -0.99105
C         56.22816        33.76725        -0.52301
C         57.25485        35.85168        -1.40476
C         56.12888        35.16661        -1.01436
C         57.23567        37.24330        -1.81253
C         55.93504        37.94574        -1.91052
C         57.21092        40.13688        -2.10944
C         55.91202        39.45182        -1.86189
C         57.23169        41.50730        -2.49621
C         56.08010        42.21876        -0.42292
C         57.49184        44.28040        -0.87290
C         56.14418        43.60234        -0.66555
C         57.39358        45.80423        -0.94272
C         56.15284        46.48521        -0.72924
C         57.43250        48.61932        -0.36628
C         56.12723        47.93555        -0.68768
C         57.37222        50.11024        -0.54177
C         56.22026        50.77630        -0.76206
C         59.31523        24.40958        -2.34296
C         58.22110        25.09808        -1.82744
C         59.45299        27.21672        -2.16595
C         58.28616        26.52329        -1.72262
C         59.50144        28.65947        -2.06729
C         58.40238        29.38290        -1.53563
C         59.60759        31.51728        -1.92359
C         58.44542        30.81798        -1.47950
C         59.66358        32.95440        -1.85497
C         58.53036        33.66691        -1.41263
C         59.73520        35.85562        -1.89283
C         58.59187        35.16849        -1.18653
C         59.69704        37.25644        -2.03076
C         58.43111        37.96320        -1.94135
C         59.64236        40.13389        -2.25871
C         58.42116        39.41154        -2.09531
C         59.62617        41.56951        -2.22453
C         58.39525        42.27765        -2.29710
C         59.68097        44.46192        -2.03348
C         58.30908        43.79944        -2.14772
C         59.73465        45.84646        -1.75702
C         58.55465        46.53236        -1.26816
C         59.78064        48.64251        -1.30603
C         58.61206        47.95499        -1.05424
C         60.47388        25.08815        -2.75979
C         60.53890        26.46747        -2.68276
C         60.64489        29.38678        -2.50694
C         60.69980        30.75745        -2.43066
C         60.83965        33.69279        -2.23280
C         60.86317        35.06880        -2.25639
C         60.87521        38.01930        -2.32269
C         60.85593        39.38717        -2.39892
C         60.84936        42.31803        -2.21359
C         60.85985        43.69526        -2.17788
C         60.92710        46.60939        -1.96942
C         60.93884        47.96843        -1.77918
O         27.81640        35.76716        -2.07709
O         45.63787        45.55318         2.40582
O         39.80858        29.25134        -0.42628
O         32.23473        48.96022         2.08954
O         42.07419        17.55884        -1.14412
O         34.87212        50.62413        -1.16646
O         24.96499        35.51704         0.40353
O         48.51332        29.29370         3.14965
O         30.25930        25.09136        -1.91589
O         56.05567        26.72653         0.94605
O         44.01796        38.82072         3.12560
O         34.56927        28.81346         2.43671
O         42.95479        24.82784         3.20839
O         55.90299        33.58657         0.90144
O         37.77613        32.43998        -0.33867
O         34.00368        44.21265         0.23156
O         51.96583        50.40857        -2.78141
O         47.40070        37.78703         2.83746
O         45.69665        24.89394         3.70943
O         55.58132        38.73583        -3.11431
O         32.05191        50.38167        -1.16596
O         31.76102        30.96486         2.28279
O         52.34221        37.57325        -2.15227
O         48.55463        24.98019         3.76250
O         39.47876        31.16913         2.57896
O         29.33601        26.96645         1.00429
O         47.11327        26.77023         0.70120
O         50.40378        45.95632        -2.10377
O         54.46743        36.12193        -2.53908
O         41.32515        56.13754        -0.85327
O         24.42377        46.13631         0.84054
O         49.84298        22.72773         3.52472
O         36.61452        43.18550         3.25302
O         27.44099        30.58624        -2.95130
O         43.39485        44.34067         2.89271
O         34.24521        34.55690         2.96825
O         31.36203        24.75475         1.60984
O         24.73472        29.66157        -4.03781
O         27.86766        40.07731        -1.97135
O         36.92569        45.95532        -0.16718
O         35.55924        47.17423         3.02597
H         35.02352        46.79300         3.76281
O         40.27240        50.42504         2.70053
H         39.40968        50.04136         2.99655
O         48.40289        52.35911        -2.76430
H         48.75668        51.52294        -3.16421
O         54.94321        25.45628        -2.17545
H         55.03392        24.71034        -2.81262
O         58.87249        35.34227         0.24927
H         59.69196        34.84305         0.45132
O         26.55492        27.65809        -3.86488
H         27.46532        28.03203        -3.81675
O         58.34779        43.94743         0.27180
H         58.10047        44.53555         1.01691
O         29.70964        36.02922         2.05105
H         30.44383        36.17177         2.70736
O         57.65819        48.37988         1.07387
H         56.87311        48.72536         1.55003
O         39.09032        55.26439         2.63225
H         39.05844        54.31676         2.88979
O         31.40627        22.08547         1.34366
H         31.33586        23.02226         1.72057
O         32.16459        33.28821         3.04866
H         31.61102        32.49000         3.23417
O         56.54804        23.66791        -2.76779
H         57.31253        23.17832        -3.13707
O         40.42630        20.07698         2.33564
H         39.60626        19.61863         2.61493
O         32.07859        21.32790        -2.18964
H         32.15684        20.50746        -2.71951
O         57.68846        44.36086        -3.31789
H         56.89496        43.82040        -3.52903
O         42.86718        36.12476        -0.45337
H         42.01450        36.49508        -0.76799
O         24.19222        26.65163        -1.23066
H         23.34272        26.16324        -1.27798
O         44.97822        19.82768         3.31409
H         45.78998        19.42485         3.68982
O         53.65895        46.66315         1.12022
H         53.67788        45.75284         1.48664
O         28.51980        44.91691        -1.72377
H         28.71345        44.03487        -2.10885
O         41.70224        21.01838        -0.95009
H         42.56380        21.38454        -1.23790
O         57.13211        41.55897         0.11958
H         57.85198        42.22157         0.29676
O         27.46647        24.38693         0.39408
H         26.58213        23.96760         0.34529
O         36.28042        52.47926         2.45440
H         36.20766        53.41705         2.73632
O         29.17125        28.71564        -2.78615
H         29.06259        29.57800        -3.25704
O         23.31848        44.29562        -2.93717
H         23.30292        43.32110        -3.05122
O         25.51460        28.80768        -0.49808
H         24.89731        28.04296        -0.39375
O         34.71935        44.96268         3.71365
H         34.58397        44.03506         4.03027
O         38.00381        49.98479        -1.03036
H         37.14075        50.11082        -1.48283
O         49.48518        49.85067        -2.96480
H         50.33117        49.67746        -3.44673
O         27.57142        49.01560         2.38137
H         26.59586        49.09092         2.52183
O         42.63157        15.69270         1.94222
H         43.35630        15.17912         2.35656
O         56.11466        42.07866        -3.04372
H         55.43647        41.38869        -3.20284
O         37.67038        49.24372         2.56380
H         37.02233        48.61364         2.96488
O         32.22869        36.14394         3.04528
H         32.47213        35.28239         3.47582
O         33.68463        42.48421         3.45276
H         33.58168        41.55774         3.75815
O         44.15450        30.87493        -0.40701
H         44.14171        31.79735        -0.74238
O         24.73843        48.61578         1.84807
H         24.55357        47.64528         1.91378
O         34.34582        27.02577        -1.35271
H         35.10267        26.50361        -1.69671
H         24.00682        23.73470        -4.22653
H         22.12904        25.06102        -5.10262
H         21.96665        27.50404        -4.68529
H         21.45679        29.30664        -3.54156
H         21.34737        31.62344        -2.85782
H         21.29402        33.51403        -2.52353
H         21.18996        35.87870        -2.04871
H         21.07873        37.68593        -1.27043
H         21.05366        40.10789        -1.10940
H         21.06796        42.02401        -0.59132
H         21.06531        44.46175        -0.89857
H         21.91933        46.34512        -3.03056
H         23.71082        49.99895        -1.55274
H         22.16996        48.82259        -3.09942
H         25.31880        22.68507        -3.24327
H         24.40101        50.89646         0.28920
H         27.23430        21.41344        -2.44514
H         26.48635        52.11052         0.17002
H         30.48809        19.10730        -0.72151
H         28.41036        20.35976        -1.01510
H         30.23970        54.27770        -0.18132
H         28.16133        53.06240        -0.06679
H         32.18085        18.19178        -0.53629
H         31.94821        55.25636        -0.05785
H         34.28243        16.99199        -0.26293
H         34.04584        56.44003         0.22767
H         38.04107        14.92442        -0.57996
H         35.92532        16.10874        -0.49640
H         37.78774        58.55056         0.76100
H         35.68210        57.34979         0.70263
H         39.71257        13.96892        -0.60909
H         39.53395        59.42293         1.56434
H         43.98177        13.95990        -0.11456
H         41.90638        12.86192        -0.81731
H         43.82185        59.29315         1.16417
H         41.74674        60.50746         1.67836
H         45.57436        15.00256         0.23269
H         45.33697        58.42590         0.19318
H         47.63201        16.24015         0.68668
H         47.36594        57.17981        -0.28494
H         51.20459        18.30614         1.89373
H         49.15772        17.09078         1.52034
H         50.98692        54.94997        -0.94751
H         48.95168        56.19338        -0.62074
H         52.81451        19.23013         1.74485
H         52.55213        54.00657        -1.33109
H         54.78496        20.38542         0.96315
H         54.62256        52.81673        -1.20149
H         58.26855        22.65215        -0.65531
H         56.51145        21.52762         0.60091
H         58.29583        50.68620        -0.38639
H         56.24868        51.87298        -0.82724
H         59.28187        23.31331        -2.43742
H         59.84910        49.72266        -1.12019
H         61.32307        24.51699        -3.15907
H         61.45037        26.97210        -3.02771
H         61.51028        28.85285        -2.92019
H         61.60490        31.26635        -2.78672
H         61.73918        33.15261        -2.55502
H         61.76828        35.56466        -2.63497
H         61.83764        37.50095        -2.42835
H         61.80250        39.91378        -2.57899
H         61.81067        41.78901        -2.22558
H         61.83561        44.20007        -2.14612
H         61.83355        46.11529        -2.34370
H         61.85145        48.54674        -1.97894
