         240
 CSIRO Nanostructure Databank - Neutral Graphene Oxide Data Set
C        -11.02140         0.73972         0.01558
C         -9.87769         1.45804         0.55385
C         -8.71417         0.65743         1.02714
C         -7.38895         1.37760         1.18884
C         -6.13451         0.61580         0.81510
C         -4.86707         1.36870         0.59451
C         -3.76941         0.85111        -0.31735
C         -2.41736         1.44625         0.02554
C         -1.24488         0.74322        -0.53363
C          0.03431         1.53286        -0.71168
C          1.35920         0.82896        -1.05428
C          2.56575         1.53099        -0.45817
C          3.78272         0.82480        -0.19788
C          5.00295         1.53787        -0.08780
C          6.20493         0.88645         0.25064
C          7.46074         1.58910         0.27190
C          8.64967         0.91016         0.62130
C          9.93489         1.54857         0.41829
C         11.17301         0.79359         0.21716
C         -9.83200         2.82368         0.46584
C         -8.66567         3.63824         0.86196
C         -7.38679         2.90204         1.19438
C         -6.08542         3.65463         1.08567
C         -4.85597         2.86989         0.73474
C         -3.63862         3.55168         0.19980
C         -2.35308         2.80315         0.25055
C         -1.12831         3.54931         0.15900
C          0.06654         2.93338        -0.19751
C          1.31134         3.65636        -0.14794
C          2.55071         2.95280        -0.31795
C          3.76768         3.68486        -0.23265
C          5.03492         2.95438        -0.57293
C          6.29435         3.69228        -0.22902
C          7.49349         2.99659         0.00430
C          8.74435         3.69626         0.06106
C          9.94360         2.92834         0.18652
C         -8.58356         5.05340         0.41660
C         -7.43928         5.78890         0.48329
C         -6.11799         5.19814         0.97717
C         -5.06007         5.71287        -0.01927
C         -3.69108         5.02349         0.02575
C         -2.46618         5.76446         0.47824
C         -1.17440         4.98703         0.53306
C          0.10652         5.76350         0.48581
C          1.34286         5.04938         0.13079
C          2.54426         5.79370         0.07454
C          3.79181         5.09002        -0.08923
C          5.03885         5.79016        -0.15042
C          6.28116         5.10476        -0.23312
C          7.53441         5.82343        -0.22586
C          8.73472         5.10615        -0.11851
C         -7.39972         7.20434         0.13624
C         -6.22894         7.90891        -0.05460
C         -4.94582         7.21779         0.01958
C         -3.75881         7.88080        -0.06343
C         -2.48419         7.29860         0.50277
C         -1.22489         7.94986        -0.02828
C          0.05899         7.27651         0.19523
C          1.30602         7.91022        -0.23952
C          2.49549         7.23015        -0.07347
C          3.75903         7.99885        -0.04970
C          5.06930         7.25077        -0.02234
C          6.31938         7.96427        -0.36359
C          7.50236         7.25811        -0.39809
C         -6.18040         9.36141        -0.17784
C         -5.01339        10.02138        -0.35876
C         -3.73067         9.27767        -0.64464
C         -2.44982        10.02187        -0.37729
C         -1.24330         9.35170        -0.24663
C          0.07846        10.11077        -0.17530
C          1.22810         9.30217        -0.82986
C          2.56114        10.01490        -0.82145
C          3.74334         9.40377        -0.52038
C          5.03432        10.05960        -0.65022
C          6.22454         9.39146        -0.57537
C        -11.01724        -0.59836        -0.24811
C         -9.87232        -1.43577         0.00518
C         -8.74466        -0.87305         0.85840
C         -7.43336        -1.44556         0.36596
C         -6.26224        -0.74947         0.23566
C         -5.04973        -1.42898        -0.33206
C         -3.75767        -0.67869        -0.45862
C         -2.45756        -1.42087        -0.40540
C         -1.27154        -0.74251        -0.52071
C         -0.01696        -1.48917        -0.92786
C          1.31740        -0.70158        -0.77915
C          2.52351        -1.35571        -0.17625
C          3.77268        -0.58146         0.07701
C          4.95628        -1.23717         0.40337
C          6.17705        -0.51448         0.49141
C          7.38033        -1.19703         0.82027
C          8.52676        -0.44842         1.02524
C         10.38487        -1.55671         0.49001
C         11.37822        -0.55685         0.11127
C         -9.80982        -2.75715        -0.35818
C         -8.61616        -3.55612        -0.09652
C         -7.44452        -2.87786         0.18426
C         -6.13489        -3.54073         0.51620
C         -5.05040        -2.96279        -0.41893
C         -3.67427        -3.58970        -0.20823
C         -2.48897        -2.89244        -0.29131
C         -1.18585        -3.58205        -0.19064
C         -0.00432        -2.90633        -0.34955
C          1.33649        -3.62186        -0.20702
C          2.35538        -2.68532         0.53945
C          3.69034        -3.38062         0.69863
C          4.92885        -2.60673         1.03719
C          6.22528        -3.49356         0.96221
C          7.43879        -2.65896         0.52208
C          8.69152        -3.39672         0.09984
C         10.04217        -2.74956        -0.06874
C         -8.58609        -4.99063        -0.27674
C         -7.44960        -5.74350        -0.05025
C         -6.21281        -5.06502         0.44523
C         -4.92837        -5.79521         0.29347
C         -3.70331        -5.10440        -0.29038
C         -2.43274        -5.81355         0.08863
C         -1.17687        -5.07584        -0.05895
C          0.09076        -5.82052         0.31805
C          1.24563        -4.92965         0.57033
C          2.40651        -5.36080         1.11210
C          3.68539        -4.73018         0.84917
C          4.82726        -5.56027         0.37388
C          6.07231        -4.71652         0.02463
C          7.36670        -5.53051         0.04724
C          8.57357        -4.88511         0.09287
C         -7.37010        -7.11600        -0.50785
C         -6.20035        -7.85091        -0.54944
C         -4.96682        -7.26954         0.01786
C         -3.66660        -7.98199        -0.09843
C         -2.40215        -7.21103         0.03040
C         -1.20529        -7.95931         0.11617
C          0.00059        -7.29936         0.68035
C          1.18230        -8.21009         1.00661
C          2.50674        -7.58741         1.18140
C          3.65531        -7.97741         0.56645
C          4.80959        -7.06382         0.24617
C          6.12302        -7.70944        -0.04189
C          7.28606        -6.97522        -0.08436
C         -6.07450        -9.17589        -1.11042
C         -4.87740        -9.84088        -1.22155
C         -3.61347        -9.29772        -0.77135
C         -2.39925        -9.93407        -0.84499
C         -1.18668        -9.34923        -0.27042
C         -0.02934       -10.10233        -0.17167
C          1.19067        -9.68598         0.61911
C          2.50534       -10.07794        -0.04218
C          3.64299        -9.31264        -0.04338
C          4.92693        -9.82867        -0.49462
C          6.08423        -9.11072        -0.40634
O          9.61450        -1.11514         1.59048
O         -5.47954        -5.58151         1.62316
O          2.47292        -6.44709         1.98449
O         -0.29997        -5.69154        -1.09083
O         -1.97004         5.21915         1.74519
O         -0.18735        -1.65103        -2.36847
H          0.68248        -1.92511        -2.73631
O          6.49852        -4.04062         2.26193
H          6.08495        -3.44365         2.92904
O         -8.99422        -1.43897         2.16882
H         -8.49309        -0.88728         2.81434
O         -4.43556        -8.03517         1.16168
O         -2.50406         7.70521         1.90536
H         -1.98489         7.02396         2.39945
O          2.30165        -1.39005        -1.63438
O          0.38548        10.37937         1.19344
H          0.35514         9.53692         1.69378
O          5.82852        -4.20971        -1.29489
H          5.42001        -4.93885        -1.81593
O          1.12127       -10.45362         1.86337
H          0.45330       -10.00706         2.42976
O         -5.05298         0.65158         1.83368
O          1.54252         0.98386        -2.48423
H          0.65470         0.85870        -2.89487
O         -5.82513         5.73868         2.26980
H         -6.29534         5.20344         2.94321
O         -5.65989         5.45632        -1.32097
H         -5.02146         4.91431        -1.84649
O          0.24375        -7.78836         2.04778
O         -5.12513         3.26611         2.11633
O          4.75066        -2.28396         2.46619
O         -5.79056        -3.12294         1.85336
H         -5.60143        -3.93972         2.37534
O          4.37714        -6.21305        -0.89162
O         -3.58702         4.16894        -1.16121
O          1.89061        -2.40817         1.92425
H          3.80454        -2.04725         2.60548
O          7.76572        -2.80128        -0.89692
O         -5.48481        -3.32419        -1.74671
H         -5.04442        -2.69976        -2.36902
O         -8.14457         0.92927         2.34860
O          4.45986         7.78568         1.22241
O         -4.57898        -0.96852        -1.65155
O          0.21464         6.71026         1.57367
O         -4.09607         1.42287        -1.60891
H         -3.36836         1.20789        -2.23145
O         -8.21729         3.44653         2.25838
O          1.86975        -3.96166        -1.49526
H          2.13799        -3.12945        -1.95305
O         -3.84811        -5.40864        -1.72537
H         -3.06721        -5.03732        -2.18996
O         -3.72575         9.06647        -2.11347
H         -4.56349         8.60740        -2.34015
O         -0.89352         1.36048        -1.84657
O          5.03985         2.86728        -2.05730
H          4.27052         2.31083        -2.31291
O          0.66778        -1.60295         1.81693
H          0.19403        -1.85687         2.64706
O          0.83195         9.16030        -2.22876
H          1.55336         8.70141        -2.70739
H         12.35020        -0.90052        -0.27750
H         12.02958         1.42998        -0.06429
H         10.90877         3.44193         0.05388
H          9.69064         5.65130        -0.13557
H          8.45159         7.78905        -0.56867
H          7.16214         9.94918        -0.72047
H          5.03637        11.13969        -0.86019
H          2.56866        11.05652        -1.18017
H         -0.01632        11.09464        -0.69667
H         -2.45563        11.11971        -0.46150
H         -5.00468        11.12034        -0.42390
H         -7.11968         9.92317        -0.05654
H         -8.36200         7.73703         0.06947
H         -9.50962         5.51899         0.04337
H        -10.69376         3.35461         0.03153
H        -11.90746         1.33762        -0.24531
H        -11.90283        -1.05946        -0.71147
H        -10.66271        -3.23039        -0.86950
H         -9.48444        -5.48430        -0.67859
H         -8.29109        -7.55595        -0.92296
H         -6.98822        -9.66380        -1.48326
H         -4.86841       -10.84404        -1.67467
H         -2.32503       -10.93921        -1.28755
H         -0.05051       -11.14872        -0.51358
H          2.55996       -11.10728        -0.42875
H          4.96198       -10.86846        -0.85241
H          7.03451        -9.58375        -0.69836
H          8.22924        -7.50983        -0.28644
H          9.50371        -5.47624         0.08378
H         10.64587        -3.13922        -0.90362
