         713
 CSIRO Nanostructure Databank - Neutral Graphene Oxide Data Set
C         22.87250        27.39881        -0.03352
C         22.89736        28.71267        -0.30931
C         22.83864        31.72004        -0.68659
C         22.88972        33.07729        -0.98519
C         23.11101        36.05660        -1.46059
C         23.13545        37.47281        -1.42565
C         23.05039        40.39139        -1.10365
C         23.16855        41.68806        -1.45390
C         23.59401        44.54527        -2.34813
C         23.82158        45.82532        -2.70054
C         25.25332        24.59018        -0.01770
C         24.11445        25.24557         0.29629
C         25.29968        27.45762         0.20576
C         24.04323        26.70858         0.64907
C         25.32095        28.94061         0.51849
C         24.02115        29.59974         0.09829
C         25.20638        31.77147        -0.11598
C         24.00435        31.04373        -0.27422
C         25.13607        33.19496        -0.01902
C         24.00712        33.85601        -0.59879
C         24.96098        36.08128         0.13672
C         24.03383        35.29578        -0.75231
C         25.41625        37.41239        -0.47983
C         24.18013        38.20758        -0.82578
C         25.36468        40.29480        -0.15868
C         24.19094        39.60317        -0.67296
C         25.38863        41.75011        -0.36853
C         24.51456        42.37361        -1.44860
C         25.62417        44.60232        -0.86551
C         24.32880        43.88792        -1.20632
C         25.80888        45.96571        -1.21331
C         24.87645        46.61032        -2.08508
C         26.05834        48.69710        -1.77129
C         25.02526        47.96895        -2.36493
C         27.81478        23.07416        -0.25246
C         27.73356        24.51563        -0.26678
C         26.55127        25.23075        -0.14941
C         27.80529        27.47848        -0.14385
C         26.53669        26.72044        -0.20821
C         27.85293        28.81203         0.18255
C         26.64967        29.70807         0.43769
C         28.00435        31.39451         1.38598
C         26.45109        30.97337        -0.44392
C         27.94124        32.76189         1.57753
C         26.08921        33.98441         0.77558
C         27.15368        36.29086         1.30555
C         26.16142        35.34485         0.66892
C         27.78885        37.35566         0.40204
C         26.45653        38.09731         0.43329
C         27.79202        40.22318         0.47774
C         26.44581        39.58726         0.38377
C         27.92580        41.57948         0.96555
C         26.17825        42.60221         0.35631
C         27.79302        44.58097         0.33859
C         26.55466        43.95158        -0.05168
C         27.93533        45.96206         0.05966
C         26.91512        46.67856        -0.66677
C         28.05153        48.87272        -0.30878
C         26.99984        48.08784        -0.92491
C         28.12994        50.25558        -0.41479
C         30.28439        23.09630        -0.37720
C         29.00136        22.41147        -0.37593
C         30.29221        24.47063        -0.40314
C         29.01414        25.22028        -0.54270
C         30.35043        27.40766        -0.38976
C         29.03821        26.72746        -0.49633
C         30.30882        28.84111        -0.19749
C         29.15121        29.46316         0.25765
C         30.32087        31.58262         0.70746
C         29.18594        30.81482         0.78308
C         30.28231        33.07378         0.72465
C         29.06396        33.65859         1.37961
C         30.25129        35.84192         1.20427
C         29.08005        35.03626         1.53544
C         30.21154        37.24470         1.04890
C         29.01587        37.95999         0.65229
C         30.33933        40.21698         0.79599
C         29.12531        39.43882         0.44493
C         30.30502        41.62532         0.74071
C         29.06134        42.34331         0.81110
C         30.28855        44.58832         1.03219
C         28.95977        43.84101         0.93940
C         30.32147        46.03999         0.76040
C         29.14355        46.68550         0.41830
C         30.40330        48.93462         0.71319
C         29.09239        48.16056         0.43022
C         30.47599        50.33927         0.29188
C         29.30571        50.97503        -0.10256
C         32.76647        20.23270        -0.23772
C         31.56504        20.95411        -0.23149
C         32.80978        23.03623        -0.43397
C         31.55191        22.34654        -0.33269
C         32.83593        24.46691        -0.44078
C         31.56022        25.21373        -0.06772
C         32.82162        27.39465        -0.33759
C         31.52525        26.69010        -0.43210
C         32.84045        28.88472        -0.54125
C         31.54450        29.62080        -0.35415
C         32.79783        31.55958         0.78868
C         31.55523        31.02937         0.14944
C         32.85680        32.98686         1.35122
C         31.56918        33.75955         1.11437
C         32.77628        35.88873         0.78811
C         31.53149        35.12329         1.15032
C         32.76817        37.28092         1.37528
C         31.45300        38.03342         1.34360
C         32.74949        40.18526         1.37686
C         31.54824        39.51271         1.16077
C         32.85151        41.62216         1.03447
C         31.56239        42.39402         0.73130
C         32.77831        44.55921         0.89713
C         31.56510        43.85473         0.92182
C         32.81552        46.00671         0.90006
C         31.59233        46.74085         0.85793
C         32.87619        48.84916         0.91272
C         31.64175        48.15219         0.81010
C         32.88290        50.29710         0.82035
C         31.75450        51.00805         0.39241
C         33.04570        53.07562         0.05914
C         31.88708        52.37972        -0.05314
C         35.33238        18.74014         0.23734
C         35.25496        20.07039        -0.37038
C         34.00044        20.87195        -0.35615
C         35.30208        23.00044        -0.52136
C         34.04079        22.29705        -0.46423
C         35.29586        24.41441        -0.58101
C         34.06808        25.13298        -0.51928
C         35.35332        27.41481        -0.75674
C         34.10260        26.61610        -0.36057
C         35.32440        28.72569         0.01632
C         34.12565        29.58558        -0.24654
C         35.35170        31.57592         0.95909
C         34.07313        30.83252         0.58519
C         35.26652        33.04959         0.61352
C         34.10909        33.71068         0.85750
C         35.30383        35.94433         0.54740
C         34.10866        35.19513         1.12647
C         35.13808        37.40928         0.67043
C         34.01949        38.02275         1.20375
C         35.37655        40.20640         1.53358
C         34.03417        39.45748         1.58208
C         35.41733        41.71947         1.51022
C         34.05119        42.44865         1.36651
C         35.24856        44.55919         0.80447
C         34.03550        43.86315         0.95326
C         35.31564        45.97371         0.78922
C         34.06537        46.69841         0.94315
C         35.35122        48.79402         1.38750
C         34.07423        48.10942         1.06696
C         35.38321        50.28679         1.41154
C         34.10213        51.04396         1.16891
C         35.51018        53.22342         0.72328
C         34.16563        52.52685         0.83184
C         35.48692        54.62632         1.28178
C         37.78492        18.63690         0.09192
C         36.52401        18.02855         0.29001
C         37.77619        20.14295         0.19503
C         36.58291        20.82619        -0.47248
C         37.79299        22.99329        -0.33295
C         36.56186        22.29729        -0.46162
C         37.83686        24.39456        -0.29639
C         36.59778        25.13010        -0.61030
C         37.86952        27.29747        -0.03691
C         36.65815        26.63347        -0.59851
C         37.84488        28.63909         0.32365
C         36.58921        29.40324         0.43509
C         37.77664        31.59986         0.41571
C         36.59749        30.87864         0.49072
C         37.79790        33.02631         0.27525
C         36.47490        33.75499         0.01567
C         37.85011        35.90211         0.39321
C         36.47444        35.26061         0.28637
C         37.98222        37.26676        -0.20283
C         36.15589        38.31556         0.20312
C         37.78850        40.18439         0.66377
C         36.44650        39.54047         0.74827
C         37.84979        41.71474         0.78736
C         36.57585        42.41073         0.94736
C         37.76787        44.55345         0.16093
C         36.47103        43.78973         0.51787
C         37.80934        45.99651         0.44433
C         36.58923        46.64438         0.71586
C         37.96192        48.76347         1.27926
C         36.64422        48.03133         1.23598
C         37.96726        50.27706         1.55520
C         36.68755        50.96971         0.99934
C         37.95718        53.15891         1.23067
C         36.63509        52.44560         1.44658
C         37.93364        54.55749         1.25784
C         36.66492        55.24168         1.50273
C         40.25521        15.79378        -0.02859
C         39.06087        16.49722        -0.00519
C         40.29866        18.60178        -0.02186
C         39.03739        17.91887         0.03788
C         40.34127        20.09479         0.23210
C         39.07507        20.77521        -0.24056
C         40.35607        22.99091        -0.23045
C         39.08096        22.25777        -0.40115
C         40.34283        24.40071        -0.17633
C         39.06434        25.12574        -0.17118
C         40.36943        27.10182         0.57922
C         39.06704        26.51192         0.04629
C         40.36235        28.62239         0.73657
C         39.05796        29.36206         0.74600
C         40.34259        31.58118         0.44087
C         39.04639        30.86761         0.66029
C         40.29570        32.99484         0.01151
C         39.03401        33.68928         0.06647
C         40.25924        35.81544        -0.26124
C         39.07275        35.11592        -0.03866
C         40.35391        37.29424         0.15838
C         39.02967        38.04023         0.12674
C         40.34474        40.16613         0.37336
C         38.97499        39.55721        -0.08576
C         40.42017        41.73223         0.39754
C         39.06038        42.43924         0.30878
C         40.21225        44.56636        -0.41419
C         39.03758        43.79016         0.14499
C         40.28989        45.99859         0.05845
C         39.10975        46.67944         0.44744
C         40.34415        48.83826         0.54927
C         39.16593        48.10328         0.71303
C         40.37938        50.28270         0.66105
C         39.18559        51.00902         1.01488
C         40.46312        53.16409         1.00057
C         39.15335        52.40887         1.03739
C         40.33208        54.64606         0.71455
C         39.12686        55.32571         0.96943
C         40.20904        57.45760         0.48749
C         39.08306        56.74473         0.83031
C         42.75462        15.74849        -0.03058
C         41.49257        16.46951        -0.09045
C         42.83356        18.52591        -0.48766
C         41.49769        17.88771        -0.12848
C         42.84294        20.05246        -0.44385
C         41.56440        20.80622        -0.31482
C         42.80751        22.97638        -0.21597
C         41.58553        22.29151        -0.18200
C         42.80603        24.39693        -0.24473
C         41.56937        25.09341        -0.21103
C         42.83382        27.25478         0.06129
C         41.52672        26.59913        -0.28665
C         42.81961        28.68086         0.23171
C         41.59840        29.38611         0.43986
C         42.77899        31.49890         0.07160
C         41.58247        30.78533         0.28217
C         42.74521        32.87326        -0.55247
C         41.47261        33.66574        -0.30454
C         42.74088        35.70336        -0.80858
C         41.47288        35.07773        -0.53174
C         42.85010        37.04810        -1.24054
C         41.11665        38.19242        -0.78606
C         42.56727        40.09351        -1.27776
C         41.34073        39.50493        -0.57796
C         42.59331        41.61867        -1.18142
C         41.41401        42.35796        -0.62100
C         42.78199        44.57571        -0.70328
C         41.54146        43.82715        -0.32706
C         42.68895        46.05596        -0.68961
C         41.54627        46.67449        -0.15155
C         42.87613        48.88565         0.02858
C         41.59983        48.09711         0.28158
C         42.77397        50.37038        -0.01117
C         41.55803        51.00223         0.30064
C         42.74973        53.25759         0.02332
C         41.44151        52.49929         0.04520
C         42.72434        54.67526         0.06852
C         41.48406        55.36566         0.33104
C         42.62268        57.50474        -0.07622
C         41.43697        56.78791         0.23801
C         43.94385        16.37550         0.14278
C         45.31713        18.62643         0.19988
C         44.01520        17.85811         0.19854
C         45.30489        20.08310        -0.11772
C         44.13440        20.76764        -0.26152
C         45.37145        22.97379        -0.35611
C         44.10917        22.25560         0.06161
C         45.34047        24.45278        -0.67206
C         44.04723        25.12873        -0.26313
C         45.31732        27.25186        -0.08112
C         44.03002        26.52047        -0.05026
C         45.30721        28.73561         0.03939
C         44.02345        29.43068         0.22969
C         45.25956        31.61681         0.53154
C         44.00873        30.83205         0.22389
C         45.26311        32.99801        -0.06383
C         44.01671        33.64947        -0.33062
C         45.17327        35.82001        -0.52640
C         43.97820        35.03587        -0.53925
C         45.15027        37.21181        -0.67244
C         43.93629        37.88968        -0.96301
C         45.08319        40.14340        -1.13640
C         43.82396        39.40600        -0.68082
C         45.07703        41.64207        -1.18119
C         43.89728        42.33884        -1.28941
C         45.18580        44.55622        -1.67536
C         43.81021        43.84156        -1.58590
C         45.17989        46.10306        -1.59354
C         43.80512        46.87414        -1.35840
C         45.09781        49.08013        -1.01617
C         43.96339        48.24384        -0.71454
C         45.17231        50.47760        -0.55684
C         43.94944        51.13653        -0.27066
C         45.18243        53.30564        -0.31542
C         43.95193        52.57548        -0.18908
C         45.16135        54.73048        -0.34003
C         43.90639        55.42726        -0.17875
C         43.82003        56.84544        -0.25403
C         47.79880        18.63252         0.14962
C         46.62747        17.95038         0.20912
C         47.87363        20.07735         0.08784
C         46.62426        20.78165        -0.39929
C         47.81818        22.96647        -0.06552
C         46.59645        22.29107        -0.19855
C         47.90508        24.44156        -0.36144
C         46.58918        25.16858        -0.18088
C         47.79642        27.24609         0.51148
C         46.57111        26.48769         0.12083
C         47.78984        28.75063         0.54312
C         46.54394        29.48605         0.31597
C         47.79322        31.57271         0.41863
C         46.55013        30.85516         0.33814
C         47.71264        33.07841         0.47242
C         46.46567        33.65957        -0.18318
C         47.71701        35.85731        -0.57078
C         46.44605        35.08175        -0.57835
C         47.68351        37.31591        -0.24646
C         46.38827        38.01783        -0.48100
C         47.72648        40.14757        -1.20857
C         46.38991        39.41306        -1.04276
C         47.61147        41.64257        -0.95530
C         46.37953        42.32030        -1.13830
C         47.70038        44.23925        -1.65604
C         46.41284        43.71506        -1.43647
C         47.68299        46.37756        -1.67976
C         46.45521        46.86365        -1.31143
C         47.67138        49.07032        -0.86333
C         46.44987        48.34766        -1.21572
C         47.64010        50.42484        -0.57205
C         46.40491        51.16074        -0.50092
C         47.63493        53.34042        -0.42788
C         46.42307        52.60484        -0.38225
C         47.59129        54.74346        -0.51665
C         46.38469        55.42484        -0.49007
C         50.34608        20.13972         0.36325
C         49.05928        20.77423         0.24318
C         50.33629        23.00230         0.30165
C         49.02144        22.26375         0.51986
C         50.35206        24.40539         0.22576
C         49.04002        25.11392         0.42268
C         50.26358        27.31917         0.17446
C         49.09282        26.60516         0.26081
C         50.25688        28.76015         0.36131
C         49.06940        29.47362         0.45093
C         50.28549        31.66746         0.52136
C         49.02449        30.92068         0.46760
C         50.27858        33.02084         0.32663
C         48.99910        33.66969        -0.05577
C         50.26006        35.86577        -0.49743
C         49.00435        35.10055        -0.45622
C         50.17922        37.32768        -0.88373
C         49.01738        38.04122        -0.15923
C         50.09269        40.23354        -0.43857
C         48.92473        39.50039        -0.54572
C         50.07250        41.65783        -0.54513
C         48.85694        42.35275        -0.80577
C         50.09478        44.60293        -0.84762
C         48.89995        43.75778        -1.09164
C         50.10917        46.02562        -0.82888
C         49.00560        46.91741        -1.29335
C         50.18074        48.99947        -0.39616
C         48.96817        48.36105        -0.93112
C         50.18877        50.40675        -0.32337
C         48.89971        51.11800        -0.21778
C         50.22953        53.26507        -0.45212
C         48.92157        52.63558        -0.20620
C         51.51499        20.84848         0.38670
C         52.78910        23.01734         0.20843
C         51.55872        22.29152         0.30446
C         52.77167        24.41872        -0.02368
C         51.55356        25.13054         0.03232
C         52.79577        27.42217        -0.48607
C         51.45938        26.58165        -0.44262
C         52.81486        28.70356         0.34633
C         51.54588        29.43764         0.65849
C         52.85221        31.67205         0.71424
C         51.51582        30.93938         1.03632
C         52.81627        33.14179         0.34117
C         51.50810        33.85178         0.22378
C         52.64822        35.92471        -0.98528
C         51.44205        35.21018        -0.40442
C         52.65780        37.39959        -0.64018
C         51.46892        38.04584        -0.53469
C         52.65168        40.27414        -0.31456
C         51.38069        39.50006        -0.22613
C         52.57806        41.73330        -0.72722
C         51.31252        42.43253        -0.16959
C         52.53413        44.58953        -0.22716
C         51.29981        43.90933        -0.49877
C         52.51017        45.98383         0.00790
C         51.18558        46.71582         0.01994
C         52.53904        48.93483         0.03606
C         51.33564        48.23100        -0.19128
C         52.61208        50.35120        -0.11898
C         51.40468        51.11061        -0.25359
C         51.38431        52.55166        -0.40416
C         55.23976        23.02144         0.49366
C         54.05384        22.36428         0.48054
C         55.36114        24.40672         0.01486
C         54.04077        25.14510        -0.27036
C         55.25494        27.30273        -0.06852
C         54.06179        26.61872        -0.19736
C         55.25848        28.76909        -0.01091
C         54.09525        29.45808         0.23200
C         55.33073        31.64981        -0.05501
C         54.12147        30.92405         0.42602
C         55.32400        33.09002        -0.14181
C         54.01414        33.75189        -0.32840
C         55.24096        35.97505        -0.64539
C         53.98145        35.18923        -0.78574
C         55.21278        37.37947        -0.61903
C         53.94259        38.12896        -0.96599
C         55.11610        40.28436        -0.43723
C         53.93231        39.57233        -0.55134
C         55.07362        41.73137        -0.25799
C         53.85109        42.45230        -0.33872
C         54.99845        44.49224         0.37370
C         53.76643        43.83117        -0.08811
C         54.97439        45.96865         0.70523
C         53.66123        46.67431         0.57325
C         55.03429        48.88374         0.49715
C         53.72639        48.22435         0.53249
C         55.05331        50.25654         0.16759
C         53.89304        50.97774        -0.05604
C         57.76778        24.61259         0.73990
C         56.56749        25.21636         0.32138
C         57.71501        27.38870         0.30263
C         56.51968        26.62371         0.15840
C         57.72563        28.80188         0.01484
C         56.52202        29.48766        -0.13345
C         57.75164        31.62598        -0.70759
C         56.47764        30.92018        -0.30818
C         57.77245        33.09830        -0.30100
C         56.49056        33.83770        -0.30822
C         57.70751        36.00708        -0.52888
C         56.47086        35.26355        -0.47138
C         57.68486        37.43526        -0.49179
C         56.41715        38.14129        -0.46020
C         57.58989        40.32193        -0.11744
C         56.36758        39.55843        -0.39253
C         57.58505        41.78740        -0.19328
C         56.31388        42.46382        -0.13605
C         57.50873        44.67934        -0.04670
C         56.28006        43.83525         0.09085
C         57.48506        45.95879         0.77905
C         56.22790        46.74153         0.72452
C         57.52868        48.82696         0.82938
C         56.24956        48.13417         0.71704
C         58.91021        25.37335         0.98058
C         60.08322        27.56735         1.03840
C         58.90798        26.75777         0.74728
C         60.15119        28.86835         0.69743
C         59.07333        29.50298        -0.14009
C         59.43216        31.86875         0.94606
C         58.88421        30.98743         0.08454
C         58.84767        33.23180         0.78257
C         59.04946        33.85595        -0.59344
C         60.12398        36.06450        -0.89477
C         58.95480        35.33310        -0.67876
C         60.10721        37.45918        -0.82994
C         58.91571        38.14752        -0.57160
C         60.10295        40.44293        -0.53580
C         58.94121        39.59184        -0.24106
C         60.04534        41.78861        -0.38761
C         58.80596        42.51021        -0.15144
C         60.00253        44.70827         0.03908
C         58.81005        43.92306         0.00551
C         60.00060        46.04556         0.34378
C         58.79318        46.71292         0.85403
C         58.71598        48.18105         0.89330
O         28.92563        26.01864        -1.78965
O         26.70280        33.33775         1.86872
O         52.27013        28.64039         1.69288
O         26.78521        42.14140         1.53975
O         48.84394        51.86396         1.04771
O         34.87263        39.66753         2.77969
O         53.95235        34.08032        -1.77230
O         25.58254        27.25513        -1.21371
O         47.67801        27.93276         1.80835
O         53.39183        47.48151         1.76979
O         24.40269        29.38634         1.53622
O         31.47306        30.77717        -1.28824
O         40.90336        42.14576         1.64358
O         45.64957        39.48167        -2.31245
O         29.40725        48.69604         1.75296
O         33.83156        52.08812         2.16950
O         58.21040        45.99596         2.02386
O         49.01450        34.00537        -1.46873
O         42.06059        20.47819        -1.64720
O         36.89441        25.91802        -1.85876
O         33.63107        29.51281        -1.60011
O         26.92891        30.51292         1.68108
O         45.70847        48.90055        -2.34161
O         49.35529        47.93791        -2.33276
O         45.21172        45.40616        -2.86960
O         42.52875        44.10633         0.68122
O         33.54288        27.03855         0.92985
O         36.89854        37.83987        -0.88189
O         29.45358        44.30219         2.23163
O         33.25357        30.57340         1.77897
O         53.79466        31.40451         1.80502
O         41.72127        37.54963        -1.86898
O         36.02889        20.17092        -1.62991
O         41.44847        42.07658        -2.02764
O         28.02898        35.68232         2.22607
O         52.32576        33.94895         1.45876
O         27.20606        31.33595        -1.31954
O         34.70406        42.28616         2.65087
O         52.09284        39.90237         1.00686
O         32.05277        37.53185         2.60175
O         45.40196        28.08501        -1.31317
O         35.66874        28.71997         1.42113
O         42.59128        48.28879         1.35793
O         39.10631        21.31121        -1.56942
O         47.78153        45.30483        -2.54311
O         36.88364        44.07602        -0.90116
O         39.68968        28.93698         2.00913
O         44.50254        18.40229         1.44811
O         46.86932        37.78406         0.89836
O         58.34284        39.83954         1.06082
O         54.86298        24.59399        -1.34927
O         32.45984        41.92361        -0.34824
O         28.52921        39.96124        -0.77889
O         39.76076        31.45558         1.79447
O         51.08122        26.32239        -1.78267
O         35.35514        49.55017         2.66029
O         54.91709        44.97195         1.79055
O         37.46642        48.04162         2.46186
O         47.11257        35.51335        -1.85741
O         38.12580        40.80207         1.91495
O         44.18125        22.29998         1.53863
H         44.92718        21.73162         1.83034
O         46.74362        20.65326        -1.86481
H         45.94862        21.05865        -2.27365
O         49.41569        37.99296         1.23423
H         48.62076        38.19816         1.77688
O         45.21459        31.86291         1.99010
H         45.18335        30.99377         2.44545
O         43.21425        43.93803        -2.90097
H         43.79274        43.47557        -3.54238
O         30.14301        33.41548        -0.72550
H         30.41844        32.63616        -1.26163
O         52.45882        41.75949        -2.17018
H         53.16866        41.20113        -2.55281
O         40.56455        39.74261         1.71879
H         40.80922        40.58439         2.21492
O         57.42148        45.21319        -1.44082
H         57.52743        44.45436        -2.05430
O         35.44500        31.54738         2.42022
H         35.47744        30.59769         2.68040
O         24.11422        36.35469         1.29408
H         24.67519        36.79787         1.97630
O         36.29546        33.63991        -1.44094
H         35.51038        34.17229        -1.69270
O         48.22633        24.51349        -1.77268
H         47.40904        24.28444        -2.27551
O         38.01547        36.11562         1.83322
H         38.03251        35.24113         2.27680
O         43.05076        18.15977        -1.88263
H         42.47233        18.74924        -2.42081
O         48.66039        24.96025         1.84025
H         49.07460        25.68568         2.35603
O         34.29003        35.30292         2.56039
H         33.75362        34.58932         2.99024
O         37.66207        20.45579         1.63099
H         36.93986        19.90311         2.00172
O         49.97513        37.43936        -2.30001
H         50.67855        36.90721        -2.74139
O         53.94020        38.19011        -2.45086
H         53.52082        37.35172        -2.77582
O         39.95758        44.64434        -1.85439
H         38.99149        44.73868        -1.99880
O         43.72052        39.53515         0.75046
H         44.37794        38.94984         1.18231
O         40.42685        20.27586         1.67176
H         39.51598        20.19515         2.04408
O         51.35145        30.99672         2.46516
H         52.21233        30.72231         2.85659
O         52.94554        27.88786        -1.84484
H         52.33301        27.29507        -2.37465
O         26.11811        37.13785        -1.71671
H         25.47256        36.77780        -2.36105
O         48.74576        22.30136         1.96867
H         48.73076        23.25875         2.23483
O         51.37292        42.42253         1.28329
H         51.51637        41.48379         1.57094
O         23.88464        26.79324         2.07971
H         23.84135        27.75320         2.30961
O         48.08043        40.06596        -2.62824
H         47.23202        39.98547        -3.12776
O         25.13144        42.21261        -2.74780
H         25.29834        41.25741        -2.88919
O         59.48339        29.32918        -1.52947
H         58.82887        29.82473        -2.08247
O         47.60924        33.47652         1.86931
H         46.81860        33.01369         2.24276
O         40.86681        52.62264        -1.29211
H         41.50391        52.24333        -1.93330
O         41.20774        26.99587        -1.65398
H         41.93496        26.69687        -2.23936
O         31.57437        25.23274         1.40942
H         32.34882        25.79432         1.66922
O         57.93206        31.47541        -2.13483
H         58.62465        32.11874        -2.41122
O         35.23844        27.75358        -2.14785
H         35.72747        27.06237        -2.65650
O         50.69384        46.61339         1.40867
H         51.45090        46.86666         1.99037
O         45.40909        24.53509        -2.15485
H         45.37094        25.48807        -2.39389
O         42.57365        39.79390        -2.67845
H         41.83892        40.30324        -3.08553
O         32.74141        36.02836        -0.66342
H         31.80985        35.97978        -0.96686
O         40.57962        26.53836         1.89282
H         40.10515        27.12226         2.52999
O         52.41008        35.92005        -2.44480
H         52.68676        35.02589        -2.76523
O         42.72963        32.57785        -2.00140
H         42.78358        33.43325        -2.47955
O         43.28997        47.13977        -2.69294
H         43.61616        46.40602        -3.27058
O         36.78307        50.84763        -0.43718
H         36.40049        51.66238        -0.85522
O         26.35403        37.45518         1.83820
O         41.03351        53.04705         2.33415
H         40.35197        53.31653         2.98479
O         60.01330        33.28859        -1.45350
H         60.31937        32.43948        -1.06481
O         38.01399        50.45102         2.98895
H         37.58832        49.64392         3.37761
O         23.47138        43.98442        -0.03031
H         23.33854        44.93456         0.17048
O         35.81103        53.31684        -0.70126
H         36.58645        53.91071        -0.80374
O         36.33608        52.49985         2.84764
H         36.91384        51.83032         3.29456
O         41.04171        37.20968         1.41255
H         40.98885        38.10386         1.84609
O         32.97975        32.89913         2.79698
H         33.72283        32.26169         2.96886
O         38.79861        39.86007        -1.48460
H         38.06761        39.29417        -1.82161
H         21.99567        26.79586        -0.31452
H         22.04196        29.17505        -0.82341
H         21.89987        31.17012        -0.83599
H         22.00289        33.57080        -1.40561
H         22.30348        35.56706        -2.02528
H         22.28518        38.00495        -1.87502
H         22.07217        39.89507        -1.18230
H         22.28510        42.24463        -1.79788
H         22.78830        43.97998        -2.83854
H         23.21763        46.30385        -3.48643
H         25.19792        23.50562        -0.19182
H         23.17515        24.67786         0.37846
H         26.13688        49.76949        -1.99262
H         24.31954        48.46906        -3.04307
H         26.88897        22.48791        -0.17020
H         27.29835        50.82023        -0.85790
H         28.98090        21.31382        -0.39976
H         29.30271        52.05505        -0.30080
H         32.72204        19.13708        -0.17002
H         30.62727        20.39043        -0.14556
H         33.16375        54.05574        -0.42440
H         31.04595        52.83701        -0.59153
H         34.41060        18.26112         0.59689
H         34.52892        55.13167         1.46828
H         36.47325        16.96135         0.55427
H         36.68272        56.27632         1.87317
H         40.24149        14.69436        -0.01243
H         38.11507        15.93853         0.00842
H         40.16850        58.55319         0.40553
H         38.14232        57.28259         1.00722
H         42.71369        14.64873        -0.04294
H         42.58044        58.60082        -0.15200
H         44.85925        15.78629         0.29871
H         44.71921        57.43698        -0.47153
H         48.73407        18.05979         0.22574
H         46.64510        16.85784         0.32872
H         48.52594        55.31806        -0.57058
H         46.39993        56.52146        -0.53162
H         50.40495        19.04224         0.35198
H         50.27146        54.34098        -0.67378
H         52.45877        20.28678         0.41018
H         52.33599        53.08163        -0.54964
H         56.13636        22.49927         0.85678
H         54.03929        21.31668         0.81157
H         56.00933        50.79474         0.13194
H         53.97348        52.06098        -0.21456
H         57.81678        23.52459         0.88233
H         57.52872        49.92454         0.85959
H         59.83056        24.88321         1.32857
H         60.91649        27.08607         1.57295
H         61.05187        29.45924         0.92146
H         60.21775        31.64717         1.68069
H         58.71122        33.88808         1.65608
H         61.06832        35.53026        -1.06460
H         61.05391        38.00719        -0.92652
H         61.04407        39.97602        -0.85840
H         60.96243        42.36863        -0.55861
H         60.96592        44.23546        -0.20072
H         60.93230        46.62664         0.27800
H         59.65500        48.75455         0.91407
