         276
 CSIRO Nanostructure Databank - Neutral Graphene Oxide Data Set
C        -11.24803         0.65491         0.35122
C         -9.97133         1.42082         0.44238
C         -8.72873         0.64373         0.18693
C         -7.51219         1.34514        -0.33460
C         -6.20606         0.57669        -0.30263
C         -4.93954         1.36253        -0.06719
C         -3.72048         0.64015         0.42684
C         -2.43176         1.41150         0.22166
C         -1.32865         0.79010        -0.58685
C         -0.07304         1.57973        -0.76943
C          1.23293         0.81944        -0.89287
C          2.51132         1.58883        -1.15203
C          3.79031         0.80942        -1.03156
C          4.90261         1.34732        -0.12505
C          6.26106         0.69739        -0.36768
C          7.48921         1.41882         0.09036
C          8.70553         0.64281         0.50556
C          9.92151         1.44282         0.96636
C         11.17259         0.58523         0.95836
C         -9.89630         2.91549         0.40458
C         -8.73807         3.58739         0.17548
C         -7.53825         2.83865        -0.32130
C         -6.22873         3.56340        -0.40977
C         -4.92713         2.85839        -0.09566
C         -3.83471         3.57695         0.72343
C         -2.45719         2.88067         0.52109
C         -1.19825         3.69469         0.35177
C          0.04139         2.93706        -0.10632
C          1.28938         3.71449        -0.33958
C          2.49441         3.13530        -1.05656
C          3.69983         3.69766        -0.29779
C          4.90175         2.88235         0.04968
C          6.18446         3.63237         0.33504
C          7.45999         2.87071         0.47164
C          8.75751         3.60372         0.39547
C         10.01283         2.77162         0.18748
C         -8.57374         5.08172         0.49924
C         -7.58397         5.83764        -0.44035
C         -6.25421         5.04038        -0.46712
C         -4.98647         5.77356        -0.16529
C         -3.78940         5.11841         0.47535
C         -2.51395         5.93444         0.52881
C         -1.19828         5.18638         0.49514
C         -0.01319         5.94983        -0.03580
C          1.21600         5.21516        -0.44948
C          2.51997         5.96969        -0.56135
C          3.76730         5.21489        -0.19579
C          5.07367         5.92693        -0.07251
C          6.35772         5.08117        -0.21798
C          7.53358         5.75806         0.49113
C          8.75973         4.95369         0.55014
C         -7.25535         7.26842        -0.01056
C         -6.65660         8.21594        -0.88317
C         -5.00295         7.24795        -0.32356
C         -3.60427         8.29819         0.57790
C         -2.43963         7.39279         0.03721
C         -1.18697         8.14489         0.48759
C          0.09410         7.39857         0.34374
C          1.24535         8.22526        -0.20651
C          2.53954         7.46557        -0.45927
C          3.83335         8.15620        -0.04164
C          5.15065         7.43731        -0.12703
C          6.43233         8.06144         0.45353
C          7.47665         7.05084         0.89312
C         -6.22724         9.62854        -0.57365
C         -4.99350        10.18948        -0.46492
C         -3.67196         9.59164        -0.20712
C         -2.46476        10.17738        -0.43779
C         -1.17926         9.66853         0.23044
C          0.17111        10.02193        -0.46810
C          1.35793         9.60972         0.37335
C          2.52103        10.15874         0.77015
C          3.63961         9.17636         1.08433
C          4.93506         9.76149         1.59157
C          6.12803         9.16243         1.45384
C        -11.30545        -0.67694         0.12643
C        -10.10957        -1.52062        -0.16470
C         -8.80229        -0.81183        -0.16459
C         -7.57044        -1.57061         0.21627
C         -6.23604        -0.89533        -0.00597
C         -5.06851        -1.59565         0.71240
C         -3.70657        -0.85057         0.50726
C         -2.52649        -1.50486        -0.18852
C         -1.36920        -0.71933        -0.76492
C         -0.08322        -1.37653        -1.34147
C          1.22418        -0.68471        -0.92568
C          2.52568        -1.46740        -1.08872
C          3.81356        -0.70211        -1.25708
C          5.11965        -1.44470        -1.22891
C          6.25461        -0.84181        -0.37097
C          7.64427        -1.39931        -0.67319
C          8.80886        -0.76310         0.03453
C         10.17001        -1.38140        -0.25158
C         11.25162        -0.68924         0.54663
C        -10.09906        -3.00959        -0.02419
C         -8.96074        -3.74168         0.09123
C         -7.65647        -3.05791         0.33801
C         -6.36473        -3.83670         0.24907
C         -5.06508        -3.09740         0.35994
C         -3.75076        -3.74471         0.00104
C         -2.44625        -2.99451        -0.07608
C         -1.15677        -3.68445        -0.50092
C         -0.04128        -2.94456        -1.19908
C          1.24360        -3.72505        -1.35241
C          2.54990        -2.96643        -1.19224
C          3.83181        -3.76548        -1.50313
C          5.15511        -2.95774        -1.37883
C          6.46725        -3.66400        -1.13467
C          7.74211        -2.87807        -0.88352
C          8.98134        -3.59022        -0.45337
C         10.08754        -2.89446        -0.09953
C         -9.00191        -5.26917         0.13337
C         -7.64060        -5.96377         0.12825
C         -6.50009        -5.17729        -0.50981
C         -5.10496        -5.91183        -0.55111
C         -3.80260        -5.15562        -0.49863
C         -2.48627        -5.90792        -0.47843
C         -1.16466        -5.18162        -0.50232
C          0.03097        -6.00545        -0.91808
C          1.31498        -5.23619        -1.11427
C          2.61944        -5.87992        -0.72657
C          3.83571        -4.97131        -0.47679
C          5.12759        -5.79859        -0.48258
C          6.43477        -5.11961        -0.73607
C          7.66015        -5.71947         0.01820
C          8.97474        -5.10521        -0.54505
C         -7.54191        -7.27056         0.45271
C         -6.28822        -8.06117         0.33639
C         -5.04478        -7.38343        -0.15361
C         -3.74647        -7.88848         0.45394
C         -2.46245        -7.34174        -0.07731
C         -1.14350        -7.83390         0.50171
C          0.05360        -7.41073        -0.36050
C          1.35909        -8.08492        -0.04117
C          2.62922        -7.28606        -0.14854
C          3.82033        -7.73146         0.64778
C          5.11206        -7.02213         0.40636
C          6.42407        -7.87758         0.55183
C          7.52218        -7.18697        -0.19237
C         -6.15406        -9.33526         1.10085
C         -4.97282        -9.93020         1.35997
C         -3.68378        -9.22490         1.14860
C         -2.38483        -9.91565         1.17948
C         -1.16577        -9.29846         0.88721
C          0.07868        -9.94237         1.07810
C          1.33659        -9.31294         0.80921
C          2.53667        -9.87692         1.19077
C          3.88538        -9.19320         1.12969
C          4.95641        -9.89779         0.30991
C          6.12311        -9.28596         0.05740
O          3.85308         3.16270         1.04388
O          4.68332         8.29470        -1.21645
O         -2.50888        -1.10931        -1.60438
O         -3.70957        -7.91763         1.89983
O          8.47329        -0.47621         1.42889
O          1.29030         0.00072         0.34549
O         -3.32566         5.76325         1.70621
O         -3.54854        -0.03926         1.69688
O          0.57074         8.92109        -1.38539
O          2.62118        -2.32715         0.10620
O          5.82528        -5.99529        -1.73982
O         -1.03874         1.50824        -1.84085
O          2.16057        -5.88584        -2.09533
O          7.14055         1.27601        -1.34680
O          7.94205        -1.90053        -1.98841
O         -0.71186        -4.44733         0.68199
O          6.68776         3.29294         1.65158
O         -2.51469        -6.99020        -1.46326
O         -6.11660         4.27313        -1.69662
O         -4.45107        -5.45456        -1.76345
O          0.37213        -3.48877        -2.48727
O          2.27361        -8.27301        -1.16209
O         -4.67296         6.53593        -1.41535
O         -4.48374         2.11920        -1.25495
O         -0.93732         4.36821         1.64453
O          4.35743        -6.79958         1.64373
O         -7.71335        -2.19859         1.52650
O         -9.09310         0.93018         1.56327
O          4.63020        -0.87779        -2.46522
O          1.07573         3.04292         0.92296
O         -1.05858        -7.05543         1.76814
O         -5.62840        -3.90874         1.48288
O         -0.46210         7.70912         1.65744
O          3.35924         1.33742        -2.32227
O         -6.03834        -0.43083        -1.35918
O          6.01797        -3.39019        -2.48570
O          0.23504         5.66233        -1.43995
O         -7.79279         2.07920        -1.55790
O         -6.89915        -4.83253        -1.78736
O          4.31019         5.58645         1.11568
O          2.63292         6.80388        -1.74439
O         -3.85096         8.31696         1.80185
O         -5.75989        -8.26579        -1.04316
O         -0.16405        -7.15343        -1.76797
O         -2.89391        -3.55788         1.17743
O          6.62031         4.95948        -1.57309
O         -9.42382        -1.10946        -1.43357
O         -2.07890         1.90909         1.54664
O          9.68278         1.81391         2.34117
H          9.37042         1.00925         2.80986
O         10.12592         2.44612        -1.19847
H          9.91945         3.23883        -1.73473
O         -1.13824        10.34693         1.50476
H         -1.81940         9.94376         2.08609
O          3.74167        -4.37433         0.81965
H          3.87816        -5.06975         1.50691
O         -4.25368         3.39271         2.07747
H         -3.61446         3.86592         2.65682
O          2.48072         3.67897        -2.37570
H          3.05565         3.12398        -2.95107
O          5.98001        -1.35564         0.94912
H          5.32943        -0.76018         1.39799
O         -8.01434         5.17619         1.81212
H         -8.59214         4.70174         2.44472
O         -8.12668         5.82721        -1.77139
H         -7.74978         5.03061        -2.22628
O          7.11207         8.76430        -0.62744
H          6.41986         9.00723        -1.28697
O         -6.74939         8.03727        -2.20907
H         -7.20983         7.17363        -2.39053
O         -2.28734         7.44856        -1.38074
H         -3.05406         7.03212        -1.83861
O          6.75284        -7.91413         1.95681
H          5.98232        -8.34321         2.41739
O          0.30288        -7.21809         2.28676
H          0.24050        -6.67868         3.11351
O         10.50333        -1.12653        -1.63923
H          9.72529        -1.39074        -2.18815
O         -0.12798        -1.08935        -2.74482
H         -1.01911        -1.32230        -3.08695
O          3.71886        -4.20627        -2.83822
H          4.62449        -4.36861        -3.19237
O         -9.76993        -5.69057         1.26697
H         -9.36160        -5.31808         2.07540
O         -5.34852        -1.46682         2.10683
H         -5.67002        -2.33719         2.44231
O          9.11322        -5.49999        -1.91038
H          8.59052        -4.89731        -2.48014
O          4.50976         0.79758         1.16543
H          3.93799         1.47077         1.61634
O          4.37963        -9.18982         2.50129
H          3.76757        -8.64646         3.04207
O          7.53390        -5.34360         1.39074
H          7.29773        -6.14274         1.92463
O          3.14295         8.31162         2.15508
H          2.95335         8.86712         2.93992
H         12.20516        -1.23017         0.65699
H         12.04564         1.03391         1.45928
H         10.91462         3.35644         0.52804
H          9.71807         5.49355         0.62245
H          8.36789         7.48964         1.37240
H          7.00735         9.61398         1.94074
H          4.84736        10.63697         2.25621
H          2.64493        11.23960         0.93276
H          0.17767        11.02213        -0.95960
H         -2.40807        11.15148        -0.95261
H         -4.98608        11.29423        -0.46271
H         -7.06293        10.34338        -0.68092
H         -7.20832         7.45070         1.07362
H         -9.58339         5.57733         0.47212
H        -10.79509         3.47354         0.71572
H        -12.18350         1.21250         0.51380
H        -12.28798        -1.17418         0.12202
H        -11.06507        -3.53116        -0.11439
H         -9.55744        -5.62352        -0.77443
H         -8.43351        -7.79252         0.83780
H         -7.08935        -9.85469         1.36077
H         -4.94472       -10.92075         1.83828
H         -2.38388       -10.98706         1.43526
H          0.08933       -10.94891         1.52480
H          2.51746       -10.82246         1.75519
H          4.77053       -10.92195        -0.04441
H          6.90741        -9.81056        -0.50924
H          7.86939        -7.59484        -1.15572
H          9.84007        -5.52662         0.02199
H         11.00051        -3.44382         0.18194
