         204
 CSIRO Nanostructure Databank - Neutral Graphene Oxide Data Set
C        -11.06249         0.57784         0.65878
C         -9.85872         1.34156         0.53731
C         -8.64508         0.64707         0.12673
C         -7.46559         1.35773         0.02173
C         -6.28788         0.77459        -0.64582
C         -4.95532         1.46953        -0.52315
C         -3.69975         0.69087        -0.64403
C         -2.45425         1.41688        -0.52100
C         -1.21635         0.69018        -0.58861
C          0.01678         1.40681        -0.45893
C          1.24473         0.69688        -0.40759
C          2.47921         1.40620        -0.29844
C          3.70846         0.70337        -0.16493
C          4.93178         1.41782        -0.00810
C          6.13030         0.69494         0.16180
C          7.36102         1.39534         0.52744
C          8.63874         0.69495         0.41950
C          9.84358         1.43305         0.48773
C         11.07704         0.69213         0.49691
C         -9.84832         2.73921         0.67045
C         -8.63702         3.47716         0.66933
C         -7.38007         2.63629         0.82120
C         -6.07945         3.41796         0.68553
C         -4.87371         2.79548         0.13049
C         -3.68478         3.50612         0.04993
C         -2.44783         2.81306        -0.27476
C         -1.22324         3.53453        -0.24103
C          0.01803         2.83437        -0.37789
C          1.24333         3.54275        -0.39348
C          2.48784         2.83038        -0.37710
C          3.71555         3.53167        -0.40638
C          4.94416         2.86219        -0.15797
C          6.16634         3.56945        -0.10321
C          7.36772         2.94137         0.42730
C          8.67348         3.62356         0.31526
C          9.83839         2.86509         0.45425
C         -8.60272         4.87613         0.67349
C         -7.40483         5.64009         0.63983
C         -6.10633         4.94083         0.71539
C         -4.88055         5.65928         0.35086
C         -3.67041         4.94727         0.21388
C         -2.45008         5.66757         0.08482
C         -1.21118         4.95991        -0.05561
C          0.00406         5.67358        -0.03830
C          1.25424         4.97863        -0.23489
C          2.45413         5.67216        -0.25977
C          3.64947         4.97825        -0.84648
C          4.96342         5.73725        -0.71739
C          6.25457         4.98727        -0.46933
C          7.48036         5.74871        -0.11837
C          8.65776         5.04286         0.14918
C         -7.38243         7.03617         0.49185
C         -6.17324         7.76614         0.37827
C         -4.91321         7.07578         0.28936
C         -3.69504         7.79798         0.17788
C         -2.45786         7.09346         0.11091
C         -1.23043         7.81800         0.06422
C          0.00847         7.11144         0.03698
C          1.22560         7.82632         0.05493
C          2.51858         7.07902         0.24408
C          3.75134         7.84377        -0.16889
C          4.94565         7.17990        -0.40940
C          6.20971         7.87408        -0.33882
C          7.41653         7.16755        -0.20896
C         -6.15301         9.19624         0.31899
C         -4.97506         9.89917         0.22616
C         -3.70103         9.23408         0.16943
C         -2.48751         9.93357         0.11906
C         -1.23542         9.25151         0.08316
C          0.00078         9.94199         0.07080
C          1.23258         9.24837         0.06896
C          2.49475         9.94590         0.06041
C          3.71695         9.27935        -0.06511
C          4.97362         9.98242        -0.15101
C          6.16227         9.31071        -0.25070
C        -11.07903        -0.78328         0.47142
C         -9.90456        -1.51605         0.08789
C         -8.68260        -0.77847        -0.16089
C         -7.54706        -1.43940        -0.62384
C         -6.32784        -0.69180        -0.96791
C         -4.97057        -1.44243        -1.02401
C         -3.71977        -0.67001        -0.85290
C         -2.45860        -1.43004        -1.16285
C         -1.20607        -0.71283        -0.73597
C          0.00982        -1.44312        -0.57642
C          1.23771        -0.72603        -0.40574
C          2.45981        -1.44050        -0.25562
C          3.72032        -0.72226        -0.17606
C          4.94344        -1.41195        -0.15108
C          6.16151        -0.71874         0.02861
C          7.41229        -1.43638         0.12849
C          8.63130        -0.72392         0.27528
C          9.87854        -1.44448         0.33473
C         11.09173        -0.67749         0.44206
C         -9.92210        -2.91063        -0.02012
C         -8.75588        -3.65149        -0.34789
C         -7.55174        -2.89617        -0.75962
C         -6.18919        -3.62813        -0.69548
C         -4.94874        -2.86420        -0.68323
C         -3.70134        -3.54671        -0.51132
C         -2.49599        -2.87391        -0.71696
C         -1.21305        -3.63735        -0.92065
C          0.01915        -2.86187        -0.52924
C          1.21162        -3.56285        -0.21616
C          2.42934        -2.83088        -0.10160
C          3.70492        -3.52528         0.17841
C          4.94812        -2.89649        -0.40155
C          6.20868        -3.59598         0.03929
C          7.41619        -2.87219         0.12201
C          8.66413        -3.58798         0.24509
C          9.87635        -2.84351         0.31645
C         -8.71091        -5.04648        -0.33448
C         -7.46766        -5.76391        -0.25900
C         -6.21060        -4.95690         0.04657
C         -4.91266        -5.71014        -0.15783
C         -3.70702        -5.00154        -0.32173
C         -2.46774        -5.71599        -0.25970
C         -1.23423        -5.03824        -0.38192
C         -0.01297        -5.71111        -0.12809
C          1.20013        -4.98597        -0.03069
C          2.37349        -5.70168         0.61797
C          3.70585        -4.97749         0.48242
C          4.96112        -5.73138         0.25031
C          6.19224        -5.00627         0.16835
C          7.43816        -5.72786         0.21889
C          8.64823        -5.00060         0.24500
C         -7.41322        -7.12431        -0.09885
C         -6.19290        -7.74348         0.54191
C         -4.90980        -7.09707         0.07679
C         -3.70042        -7.82692         0.06939
C         -2.46867        -7.13420        -0.05461
C         -1.23488        -7.85054         0.03342
C         -0.01238        -7.14641         0.05704
C          1.22226        -7.86302         0.14276
C          2.45039        -7.16186         0.24512
C          3.67419        -7.84394         0.20993
C          4.93938        -7.12644         0.22531
C          6.18453        -7.84814         0.17335
C          7.39476        -7.15306         0.21405
C         -6.14798        -9.24523         0.45338
C         -4.99453        -9.93207         0.32281
C         -3.70259        -9.26639         0.20954
C         -2.51011        -9.96446         0.19664
C         -1.24366        -9.28902         0.12127
C         -0.02664        -9.98337         0.11709
C          1.21728        -9.29665         0.10519
C          2.46404        -9.97646         0.09430
C          3.67523        -9.27691         0.11363
C          4.94695        -9.96414         0.07932
C          6.13271        -9.29115         0.11416
O         -6.24096        -4.71091         1.44911
O          4.85215        -3.09044        -1.85103
H          5.63099        -2.66192        -2.26420
O          3.35881         4.90552        -2.28889
H          4.23353         4.81083        -2.73556
O         -5.85438         4.14809         1.94289
O          5.83178         5.36657        -1.84625
O         -7.41185         2.15615         2.20857
H         -7.04792         2.88990         2.75849
O         -5.76328         1.57616        -1.76689
O          7.20125         2.24811         1.70748
O         -6.92946        -3.49540        -1.94280
O          3.86723        -3.96844         1.56666
O         -5.73266        -1.06174        -2.23290
O          2.01881        -5.69433         2.03823
H          2.45515        -4.89604         2.42342
O         -1.07310        -3.81594        -2.38828
H         -1.37270        -2.96239        -2.79978
O         -6.31272        -7.37768         1.95629
H         -6.29081        -6.36605         1.98190
O          2.67273         6.95514         1.72437
H          2.59365         7.86018         2.09623
O         -2.39135        -1.46872        -2.66208
H         -3.31357        -1.54525        -2.99482
H         12.04992        -1.21685         0.47549
H         12.02380         1.24841         0.56176
H         10.81045         3.38193         0.44100
H          9.60348         5.59669         0.25479
H          8.34649         7.74094        -0.07120
H          7.11051         9.86847        -0.25202
H          4.96509        11.08087        -0.09160
H          2.48482        11.04574         0.09567
H          0.00267        11.04228         0.07496
H         -2.49632        11.03402         0.12272
H         -4.99509        10.99871         0.20066
H         -7.10937         9.73781         0.36776
H         -8.33641         7.58509         0.46945
H         -9.56037         5.42027         0.64266
H        -10.80520         3.27590         0.76515
H        -11.98826         1.09998         0.94215
H        -12.01459        -1.34327         0.61607
H        -10.84822        -3.45538         0.21872
H         -9.64553        -5.60536        -0.16377
H         -8.32165        -7.73666        -0.22536
H         -7.09933        -9.78883         0.56124
H         -5.00496       -11.03305         0.30981
H         -2.51871       -11.06215         0.27581
H         -0.03038       -11.08357         0.13875
H          2.47537       -11.07660         0.06729
H          4.94063       -11.06302         0.02435
H          7.08236        -9.84590         0.08705
H          8.34072        -7.71531         0.23129
H          9.60304        -5.54705         0.27529
H         10.83163        -3.38594         0.38316
