         272
 CSIRO Nanostructure Databank - Neutral Graphene Oxide Data Set
C        -11.07316         0.40190        -0.51561
C         -9.98403         1.24278         0.04616
C         -8.70195         0.52739         0.34347
C         -7.42459         1.30281         0.22565
C         -6.26236         0.64835         0.93585
C         -5.03019         1.47337         1.36221
C         -3.65803         0.74001         1.19378
C         -2.41536         1.45260         0.71054
C         -1.11234         0.71216         0.50243
C          0.05202         1.48978         0.02225
C          1.25434         0.76451        -0.46031
C          2.53372         1.52468        -0.64430
C          3.81572         0.82905        -1.01962
C          5.11370         1.59062        -0.87632
C          6.27540         0.76373        -0.42231
C          7.55520         1.45871         0.09734
C          8.84730         0.70385        -0.20409
C         10.13391         1.44229         0.21834
C         11.09728         0.51073         0.93567
C         -9.97644         2.72743        -0.12995
C         -8.85320         3.47972        -0.02045
C         -7.53827         2.78315         0.08179
C         -6.31896         3.60249         0.33067
C         -5.05090         2.92743         0.76545
C         -3.87201         3.48294        -0.03652
C         -2.49426         2.83229         0.11058
C         -1.21762         3.61212         0.02843
C          0.04798         2.84903         0.05459
C          1.30307         3.62790         0.05979
C          2.59376         2.89202        -0.05201
C          3.88813         3.67634        -0.04925
C          5.13607         3.05916        -0.59333
C          6.43175         3.77360        -0.28647
C          7.67425         2.97381        -0.10811
C          8.82639         3.57754         0.63344
C          9.89879         2.79360         0.88861
C         -8.91469         5.01672         0.01561
C         -7.59302         5.76219        -0.26088
C         -6.40324         4.87171        -0.58244
C         -4.95629         5.89159         0.18466
C         -3.75774         5.02638        -0.07679
C         -2.45447         5.79612        -0.05714
C         -1.15319         5.10613         0.32034
C          0.01425         5.78596        -0.40869
C          1.35247         5.05710        -0.46453
C          2.51305         5.87024         0.12935
C          3.82176         5.12549         0.28372
C          5.08995         5.91872         0.27793
C          6.31428         5.04596         0.55439
C          7.59440         5.86346         0.53485
C          8.77538         5.05036         1.08169
C         -7.51912         7.11620        -0.34416
C         -6.27576         7.88998        -0.67934
C         -4.95804         7.19306        -0.55534
C         -3.71712         8.00318        -0.25425
C         -2.46651         7.29406         0.12128
C         -1.10486         8.02307         0.17203
C         -0.00516         7.26371        -0.60656
C          1.32291         8.03403        -0.89188
C          2.54991         7.31210        -0.25867
C          3.85906         8.05853        -0.55285
C          5.11854         7.34374        -0.07535
C          6.45330         7.96201        -0.42972
C          7.61416         7.18094         0.22555
C         -6.18863         9.37452        -0.55823
C         -5.02371        10.05989        -0.58284
C         -3.68418         9.39163        -0.87049
C         -2.40901        10.12670        -0.49289
C         -1.20613         9.48522        -0.26001
C          0.04849        10.17122        -0.29145
C          1.30046         9.49460        -0.30556
C          2.50335        10.14169        -0.04719
C          3.82199         9.41595         0.18463
C          5.15925        10.11508        -0.02683
C          6.33074         9.46054        -0.16716
C        -11.02309        -0.94314        -0.49885
C         -9.90356        -1.71925         0.17607
C         -8.59208        -0.94557         0.05431
C         -7.28323        -1.64556         0.26390
C         -6.20934        -0.85720         0.98998
C         -4.95065        -1.53814         1.58257
C         -3.60152        -0.79496         1.32553
C         -2.31153        -1.54253         0.98309
C         -1.05446        -0.78495         0.56632
C          0.10262        -1.53132        -0.09452
C          1.30571        -0.73269        -0.49197
C          2.42441        -1.35826        -1.29329
C          3.76915        -0.63679        -1.31658
C          5.06571        -1.45873        -1.36984
C          6.19370        -0.72549        -0.59450
C          7.45920        -1.51329        -0.45303
C          8.75982        -0.79132        -0.18661
C          9.71422        -1.58236         0.69916
C         10.98927        -0.82734         0.99003
C         -9.75608        -3.16107        -0.34408
C         -8.56005        -3.88200         0.26269
C         -7.26365        -3.14993         0.34138
C         -6.05163        -3.84532         0.87083
C         -4.82754        -3.06119         1.31355
C         -3.51958        -3.78199         1.07571
C         -2.16549        -3.07552         0.87697
C         -1.41980        -3.56042        -0.37789
C         -0.22792        -2.74348        -0.96796
C          1.02943        -3.58842        -1.37303
C          2.36541        -2.84252        -1.45748
C          3.64809        -3.61159        -1.26545
C          4.81591        -2.82596        -0.69781
C          5.93058        -3.53960         0.00307
C          7.32242        -2.97508        -0.17417
C          8.51351        -3.76519         0.22509
C          9.86754        -3.05625         0.24366
C         -8.59410        -5.21993         0.50163
C         -7.40342        -6.01785         0.77489
C         -6.19056        -5.30746         1.39747
C         -4.84228        -6.03980         1.04829
C         -3.58545        -5.27288         0.76498
C         -2.52546        -5.92479        -0.08086
C         -1.48402        -5.01701        -0.69255
C         -0.42518        -5.70130        -1.51383
C          0.97345        -5.08964        -1.58305
C          2.29694        -5.88894        -1.46956
C          3.58364        -5.10030        -1.09890
C          4.54226        -5.74073        -0.11342
C          5.80430        -5.00477         0.48051
C          7.10104        -5.80860         0.27129
C          8.38675        -5.11355         0.30803
C         -7.43801        -7.36680         0.56926
C         -6.19941        -8.16570         0.38826
C         -4.90955        -7.43447         0.48411
C         -3.60126        -8.17743         0.62155
C         -2.43624        -7.42623         0.02837
C         -1.13540        -8.19271        -0.04489
C         -0.98588        -6.88859        -2.30544
C          1.25916        -8.40841        -1.62528
C          2.38827        -7.40932        -1.37650
C          3.65526        -8.06032        -0.83997
C          4.55007        -7.23206         0.04047
C          5.75610        -7.85303         0.78464
C          7.04163        -7.16265         0.36399
C         -6.13773        -9.64842         0.43038
C         -4.97333       -10.32971         0.40083
C         -3.63685        -9.67483         0.43861
C         -2.44630       -10.32404        -0.11425
C         -1.22641        -9.66317        -0.28722
C         -0.02091       -10.35416        -0.57477
C          1.21927        -9.70101        -0.85281
C          2.42535       -10.28842        -0.52204
C          3.69339        -9.56085        -0.57301
C          4.83567       -10.11911         0.19739
C          5.81894        -9.35623         0.68955
O          4.96588        -2.71257         0.73495
O         -3.08358         5.41901        -1.30924
O         -0.62231         0.01049         1.69740
O          0.91970        -4.17569        -2.71299
O          4.13242        -4.50955        -2.30713
O          5.01293         6.96233         1.31377
O          5.72974        -0.12040         0.64082
O         -2.66439        -1.20179         2.35543
O          5.17172         2.56220        -1.95947
O         -6.83729        -0.07555         2.05135
O         -5.53013         7.32605        -1.85533
O          3.74370        -6.39426         0.92090
O         -6.11236         4.75225        -1.81135
O          1.25925        -1.49326         0.77457
O         -0.06332        -7.64228         0.20552
O         -0.66556         7.97300         1.49405
O          1.99267         3.15749         1.26241
O         -5.79965         3.78975         1.67787
O         -2.75670         1.43018         2.12401
O          2.61809        -6.68861        -2.62798
O          2.22336        -1.93438        -2.60354
O         -9.58525         0.87033         1.44225
O         -0.41338         6.38468        -1.67132
O         -3.35000         7.85474         1.14374
O          7.57218        -2.47551        -1.54395
O         -1.86244         3.09068        -1.18760
O         -2.96599        -6.79405        -1.18470
O          4.19766        -8.95349        -1.82989
O          9.11672        -0.06177        -1.41379
O         -6.22532        -3.72962        -0.56154
O          1.46994         8.15907        -2.24437
O         -4.06748        -3.61797         2.41267
O         -0.96811        -5.79891        -2.93709
O          2.27402         6.90677         1.11838
O          3.75103         0.33146        -2.40098
O         -2.27574        -4.00497        -1.44745
O         -7.69400        -1.19206        -1.07386
O         -6.37725        -5.29547         2.75261
O          7.39351         3.64361        -1.37212
O          5.68467        -4.97395         1.87104
O          1.59520         1.38364        -1.75064
O         -3.36022        -8.99004         1.76329
O         -7.23768         1.89497        -1.07639
O         -5.49099        -7.61113        -0.82440
O          0.57223        -8.30990        -2.63290
O         -3.79078        -6.00290         2.02642
O          4.03028         4.15664         1.35596
O          6.07093         4.55577         1.85269
O         10.83230         1.80504        -1.00537
H         10.66765         1.07851        -1.65091
O         -9.42910         5.42252         1.28861
H         -8.89326         5.01111         1.99759
O          6.64544         7.79567        -1.85271
H          7.34115         8.41506        -2.15373
O         -0.96418         5.27524         1.73097
H         -0.81347         6.26024         1.90026
O        -10.19607        -1.81995         1.58495
H        -10.19880        -0.90383         1.95483
O         10.01143         5.68707         0.78224
H         10.28623         5.43020        -0.12182
O          1.71603         4.90572        -1.85386
H          1.17708         5.54826        -2.38085
O         -3.58662         9.22080        -2.30841
H         -4.31034         8.60463        -2.58434
O          7.51217         1.37694         1.55407
H          6.84062         0.69607         1.80473
O         -0.71389        -2.12962        -2.17133
H         -0.62033        -2.78645        -2.90005
O          4.00319         8.27951        -1.94853
H          3.09459         8.34659        -2.37101
O         -4.29199         3.07081        -1.35736
H         -3.69790         3.50429        -2.01384
O         -5.15324        -1.43432         2.99549
H         -4.43793        -1.94684         3.43544
O         -5.26857         6.16578         1.47607
H         -5.14084         5.37965         2.06335
O          5.42195        -1.64979        -2.72821
H          5.00432        -0.93829        -3.26432
O          9.01231        -1.67824         1.97739
H          9.00659        -0.79297         2.40104
O         -1.30661        -3.46965         1.95761
H         -1.68176        -3.09880         2.78802
O         -9.59611        -3.14201        -1.76562
H         -8.76309        -2.65699        -1.97038
O         -5.19460         1.64161         2.77056
H         -4.31064         1.75121         3.18460
O          5.60656        -7.60223         2.19509
H          5.52586        -6.60706         2.31099
O          3.69114         9.24330         1.61747
H          3.27633         8.36767         1.81332
O         10.76413        -3.73004         1.11955
H         10.40575        -3.63674         2.02769
H         11.80836        -1.41971         1.42856
H         12.04491         0.97379         1.25528
H         10.76182         3.22382         1.42196
H          8.65473         5.05821         2.20084
H          8.58813         7.69904         0.26241
H          7.25746        10.05535        -0.23549
H          5.17499        11.21209         0.07985
H          2.44476        11.15078         0.40115
H          0.03948        11.26006        -0.48228
H         -2.41057        11.22453        -0.60773
H         -5.04735        11.15543        -0.47650
H         -7.12976         9.92107        -0.38950
H         -8.42774         7.71187        -0.15655
H         -9.66350         5.35343        -0.74793
H        -10.95226         3.22035        -0.26589
H        -11.92149         0.91749        -0.99131
H        -11.84931        -1.52086        -0.93980
H        -10.68987        -3.73130        -0.11727
H         -9.53939        -5.76490         0.34514
H         -8.38338        -7.83463         0.24726
H         -7.08885       -10.20145         0.44218
H         -4.98796       -11.43005         0.37272
H         -2.52344       -11.38394        -0.40502
H         -0.01314       -11.45046        -0.45752
H          2.42089       -11.23715         0.04001
H          4.89560       -11.21651         0.26618
H          6.66409        -9.83192         1.20921
H          7.97067        -7.75377         0.33272
H          9.28384        -5.72871         0.48049
H         10.30988        -3.08509        -0.78538
