         344
 CSIRO Nanostructure Databank - Neutral Graphene Oxide Data Set
C          1.23960         2.05134        -0.35722
C          1.18078         3.47151        -0.24622
C          2.41106         1.36438        -0.19373
C          2.30722         4.23652         0.00226
C          1.15011         6.40580        -0.35686
C          1.16941         7.76992        -0.55685
C          2.35004         5.67739        -0.17823
C          2.39014         8.48484        -0.57975
C          1.24796        10.56175        -1.32509
C          1.30564        11.89130        -1.71379
C          2.40809         9.90818        -0.85818
C          2.48991        12.61539        -1.52610
C          1.38413        15.71138        -1.03619
C          1.38039        16.81279        -0.18750
C          2.51939        14.89493        -1.10133
C          2.54805        17.14042         0.52676
C          2.59880        18.38091         1.28283
C          3.58697         2.03316         0.34125
C          3.54332         3.57975         0.43927
C          4.91786         1.40660         0.25049
C          4.81772         4.30380         0.37216
C          3.58836         6.36964        -0.16355
C          3.60446         7.78534        -0.34653
C          4.83681         5.64997         0.05441
C          4.84972         8.51277        -0.34084
C          3.62370        10.64029        -0.72642
C          3.64310        12.05514        -0.94221
C          4.85002         9.92436        -0.49111
C          4.84631        12.83402        -0.63836
C          3.67342        15.11159        -0.31526
C          3.69005        16.30933         0.43991
C          4.85573        14.22202        -0.34907
C          4.94243        16.72894         1.16671
C          3.78323        18.91328         1.68584
C          5.02125        18.22015         1.41616
C          6.04780         2.09220         0.51229
C          6.05775         3.57416         0.84969
C          7.32191         1.32685         0.76153
C          7.34244         4.26274         0.42491
C          6.10431         6.36597        -0.00897
C          6.09192         7.80506        -0.24773
C          7.30539         5.67114         0.16059
C          7.29493         8.50942        -0.41820
C          6.07976        10.65054        -0.53027
C          6.07634        12.08068        -0.55392
C          7.31625         9.92697        -0.53061
C          7.32482        12.76252        -0.50437
C          6.10998        14.85434        -0.03286
C          6.17064        16.16978         0.49840
C          7.33811        14.16298        -0.27788
C          7.39090        16.86871         0.56583
C          6.22569        18.87357         1.44348
C          7.44880        18.23242         1.03033
C          8.57239         2.10143         0.44125
C          8.54359         3.54543         0.33972
C          9.73358         1.39226         0.29523
C          9.80249         4.21584         0.01834
C          8.60632         6.44539         0.19303
C          8.55129         7.70935        -0.66325
C          9.83025         5.62532        -0.14752
C          9.82796         8.50132        -0.52505
C          8.56174        10.63076        -0.61951
C          8.56892        12.04838        -0.60352
C          9.81920         9.91356        -0.60702
C          9.79838        12.77582        -0.65970
C          8.57587        14.86198        -0.21432
C          8.59835        16.23752         0.12998
C          9.79941        14.18372        -0.50053
C          9.81970        16.96086         0.09207
C          8.66043        18.92613         0.99987
C          9.85069        18.32590         0.51732
C         11.00653         2.05335         0.14111
C         10.99340         3.47159        -0.08770
C         12.19532         1.36395         0.31897
C         12.23806         4.10898        -0.64853
C         11.06024         6.31960        -0.38537
C         11.04059         7.78907        -0.45666
C         12.25906         5.61389        -0.50054
C         12.25054         8.51225        -0.51051
C         11.05161        10.63108        -0.67732
C         11.06484        12.08172        -0.78334
C         12.26362         9.90921        -0.64741
C         12.24988        12.79498        -0.92513
C         11.00924        14.94431        -0.60209
C         11.01006        16.30771        -0.35260
C         12.24267        14.28414        -1.16493
C         12.21656        17.14183        -0.72212
C         11.09969        19.01267         0.54195
C         12.27128        18.44445         0.05339
C         13.41627         2.15559         0.68593
C         13.53092         3.42072        -0.17273
C         14.71617         1.39841         0.67064
C         14.80335         4.18597        -0.01594
C         13.55300         6.31139        -0.60596
C         13.54751         7.81216        -0.57207
C         14.80083         5.64268        -0.20300
C         14.71470         8.54518         0.05478
C         13.55767        10.58594        -0.90107
C         13.54116        12.10333        -1.07858
C         14.81387         9.94912        -0.49757
C         14.80882        12.82605        -0.85535
C         13.53596        14.99934        -0.80098
C         13.51605        16.36343        -0.64884
C         14.79014        14.26581        -0.77755
C         14.78713        17.17804        -0.75448
C         13.51462        19.08273         0.28131
C         14.74486        18.49219        -0.00781
C         15.92326         2.06961         0.75850
C         15.89723         3.58453         0.85614
C         17.17038         1.39915         0.80359
C         17.23916         4.24244         0.64228
C         15.99024         6.38698        -0.03004
C         16.00174         7.78347        -0.06216
C         17.28765         5.60487        -0.02269
C         17.23233         8.57927         0.26141
C         16.02175        10.65423        -0.56979
C         15.99451        12.08818        -0.76196
C         17.28195         9.98186        -0.31170
C         17.29621        12.82171        -0.95210
C         16.00193        14.98670        -0.59017
C         16.02799        16.37756        -0.45985
C         17.28384        14.22514        -0.33911
C         17.24758        17.08742        -0.18221
C         15.95879        19.13257         0.31097
C         17.20671        18.49630         0.15976
C         18.41038         2.08917         0.94634
C         18.38727         3.56004         0.92566
C         19.61861         1.40696         0.88824
C         19.66207         4.28385         1.16315
C         18.49402         6.43054         0.33375
C         18.49786         7.77587         0.16219
C         19.64448         5.80317         1.09247
C         19.80499         8.47936        -0.05346
C         18.50594        10.67992        -0.29426
C         18.53279        12.09729        -0.48589
C         19.76170         9.99128         0.00736
C         19.72171        12.84800        -0.34371
C         18.53590        15.02786        -0.76066
C         18.48306        16.42703        -0.20470
C         19.78277        14.25994        -0.37976
C         19.69675        17.10739         0.07246
C         18.43034        19.18694         0.37327
C         19.66698        18.53827         0.32056
C         20.95873         2.00174         1.23740
C         20.95742         3.53267         1.25499
C         22.14994         1.43876         0.51140
C         22.23666         4.26325         1.01008
C         20.99298         6.42864         0.81446
C         20.98519         7.79140         0.58704
C         22.22497         5.69333         0.94431
C         22.22589         8.54945         0.75982
C         20.95170        10.66996        -0.00089
C         20.99380        12.10409        -0.33187
C         22.21306        10.03515         0.44873
C         22.29606        12.86218        -0.32720
C         20.98484        14.97510        -0.07808
C         20.91371        16.39507         0.12907
C         22.24211        14.29499         0.04035
C         22.09989        17.12206         0.61731
C         20.90634        19.25763         0.42720
C         22.12411        18.60108         0.51429
C         23.33905         2.11555         0.49822
C         23.40936         3.53100         0.78321
C         24.60496         1.33451         0.19579
C         24.75829         4.21040         0.88837
C         23.47858         6.39311         0.74623
C         23.49252         7.81971         0.69369
C         24.69713         5.69599         0.62807
C         24.69322         8.53734         0.57582
C         23.50482        10.67125         0.20866
C         23.62374        12.11665        -0.23508
C         24.67677         9.98091         0.43557
C         24.64070        12.78153         0.69124
C         23.43793        14.95226         0.42497
C         23.38241        16.38402         0.81471
C         24.67236        14.26882         0.51404
C         24.68758        17.15860         0.99348
C         23.38989        19.26843         0.46958
C         24.61536        18.61259         0.54691
C         25.80746         2.16929        -0.17789
C         25.87066         3.54069         0.11445
C         26.91599         1.52132        -0.74136
C         27.04077         4.27749        -0.20991
C         25.90786         6.40560         0.38974
C         25.91868         7.83244         0.41605
C         27.10385         5.71037         0.02637
C         27.14197         8.55140         0.21074
C         25.94868        10.69274         0.36065
C         25.96872        12.10020         0.47200
C         27.14401         9.97047         0.20900
C         27.19011        12.83522         0.45610
C         25.91717        14.94771         0.57008
C         25.85578        16.42145         0.36988
C         27.14301        14.27557         0.54720
C         27.11574        17.18227         0.15621
C         25.84917        19.30803         0.37674
C         27.08522        18.65804         0.28230
C         28.10373         2.22554        -1.02092
C         28.15019         3.61927        -0.77979
C         29.29681         1.53957        -1.46685
C         29.35403         4.39826        -1.23754
C         28.31618         6.42650        -0.16314
C         28.35565         7.84053         0.00968
C         29.51186         5.74352        -0.57655
C         29.60805         8.56712        -0.02579
C         28.37636        10.72041        -0.20548
C         28.41460        12.15665         0.25518
C         29.63672         9.93668         0.01378
C         29.65634        12.87318         0.12897
C         28.44217        15.03479         0.69285
C         28.39770        16.46777         0.21789
C         29.66418        14.29653         0.19616
C         29.57301        17.18255         0.08104
C         28.32386        19.33363         0.16258
C         29.53183        18.63809         0.01576
C         30.50981         2.18481        -1.52532
C         30.61889         3.58286        -1.26904
C         31.84677         4.24464        -1.17724
C         30.76336         6.36852        -0.55668
C         30.92251         7.80000        -0.05654
C         31.92050         5.61024        -0.86678
C         31.92866         8.60240        -0.86338
C         30.96394        10.65983         0.11179
C         30.87449        12.16481        -0.09170
C         31.94295         9.93958        -0.80025
C         32.04494        12.90216        -0.29545
C         30.85568        15.02085        -0.02235
C         30.85008        16.49150         0.01715
C         32.03551        14.29723        -0.30251
C         32.00677        17.24371        -0.08305
C         30.77025        19.34436        -0.09559
C         31.96416        18.66472        -0.13173
O         26.20923        16.77269        -0.99453
O         22.11336         9.54531         1.84910
O         14.53807         3.36384        -1.23287
O         20.25598         3.93947         2.49064
O         13.77042         7.15422        -1.84681
O         13.60566        11.20316        -2.24102
O         21.68891        12.47748        -1.61250
O          2.50975        13.89946        -2.08327
O          3.39006         2.72647         1.62691
O         22.49980        16.60978         1.97409
O          4.88943        16.10237         2.49903
H          5.70332        16.36696         2.97778
O         24.97749        17.18826         2.41474
H         24.10604        17.24769         2.87305
O         24.21765        12.13971        -1.55497
H         23.47318        12.07253        -2.19783
O         18.57982        15.24120        -2.19547
H         18.44814        14.36712        -2.63606
O          6.01161         3.64394         2.31627
H          5.12050         3.30072         2.56925
O         15.53494         3.94037         2.23851
H         16.24998         3.61472         2.82634
O         17.52482         5.26099        -1.44287
H         16.70606         4.83757        -1.78413
O         20.05674         8.26273        -1.50783
H         19.78150         7.34582        -1.72912
O         14.38681         8.66856         1.47954
H         15.23388         8.90872         1.93304
O         12.02247        17.48548        -2.12951
H         12.04542        16.63640        -2.62965
O          8.48119         7.25533        -2.04865
H          8.52178         8.04320        -2.62991
O          8.78700         6.88393         1.57406
H          8.68888         6.10033         2.15552
O         12.16314        14.47474        -2.63485
H         11.52037        13.82004        -2.98348
O         17.36393        14.01475         1.09456
H         17.34655        14.89129         1.53334
O         12.16036         3.87906        -2.09357
H         13.08926         3.90786        -2.42493
O         28.64478        15.14943         2.16070
H         28.89800        14.26033         2.48996
O         31.44899        10.50675         1.48047
H         31.58953         9.53634         1.62966
O         19.30839         6.26103         2.45475
H         19.80750         5.67290         3.07083
O         24.35780         0.33864        -0.80442
H         24.18470         0.79302        -1.65397
O         13.15610         2.61187         2.05717
H         13.96404         3.09552         2.37059
O         21.17863         1.56525         2.62571
H         20.67496         2.19876         3.18861
O         29.07777         4.72189        -2.66880
H         29.86176         5.20723        -3.00512
O         17.41266        12.93101        -2.41378
H         17.37463        12.02324        -2.78374
O          7.31668         0.06504         0.08838
H          7.41882         0.22838        -0.87141
O         31.44451         7.72533         1.31242
H         30.80609         7.20438         1.84409
O         24.20246        12.52844         2.05703
H         24.79824        13.01402         2.66492
O         28.26345        10.83381        -1.69108
H         27.40043        11.26431        -1.87976
O         25.14662         4.06841         2.31026
H         24.44139         4.48835         2.84774
O         14.89433        17.55029        -2.17391
H         14.93692        16.72029        -2.69486
O         17.14211         8.82953         1.74247
H         17.58631         8.07659         2.19668
H          0.34277         1.52269        -0.71033
H          0.23586         3.95757        -0.52460
H          2.49452         0.31141        -0.49933
H          0.18342         5.88662        -0.32715
H          0.21418         8.29461        -0.68467
H          0.30927        10.01102        -1.46255
H          0.43922        12.38292        -2.17406
H          0.51754        15.48115        -1.66909
H          0.49689        17.46289        -0.11994
H          1.65933        18.93294         1.43250
H          4.97916         0.32251         0.06062
H          3.82285        19.91211         2.14569
H          7.34004         1.09671         1.86471
H          6.25921        19.94274         1.70512
H          9.71127         0.29687         0.39417
H          8.69109        19.97114         1.34330
H         12.18044         0.27697         0.49114
H         11.14705        20.00003         1.02755
H         14.70263         0.29798         0.64817
H         13.50776        20.06082         0.78961
H         17.18311         0.30139         0.73252
H         15.92789        20.15515         0.71832
H         19.58572         0.30921         0.80359
H         18.39783        20.26800         0.57639
H         22.14266         0.36942         0.25053
H         20.87907        20.35783         0.41523
H         24.86739         0.77206         1.13486
H         23.38572        20.35422         0.28213
H         26.86144         0.44035        -0.93677
H         25.81915        20.40434         0.27285
H         29.23707         0.45923        -1.66338
H         28.34232        20.43338         0.20290
H         31.42538         1.61486        -1.74556
H         32.77809         3.67309        -1.30672
H         32.90948         6.08167        -0.78380
H         32.64756         8.06729        -1.50210
H         32.67747        10.51561        -1.38327
H         33.00085        12.37965        -0.44131
H         32.97872        14.82869        -0.48782
H         32.98955        16.75569        -0.13511
H         30.75320        20.44289        -0.14021
H         32.90977        19.21952        -0.20920
