         424
 CSIRO Nanostructure Databank - Neutral Graphene Oxide Data Set
C          1.39577         1.94482         1.17400
C          1.39694         3.35568         1.35839
C          2.54718         1.22556         0.98462
C          2.56718         4.10978         1.30414
C          1.35466         6.31818         1.14527
C          1.34729         7.66438         1.26823
C          2.58487         5.54840         1.23535
C          2.59965         8.37823         1.71527
C          1.43979        10.59239         1.94894
C          1.42356        11.97839         1.92543
C          2.57293         9.87913         1.51950
C          2.56237        12.71703         1.53491
C          1.41423        14.90814         1.94810
C          1.44252        16.28842         2.05659
C          2.57327        14.17012         1.60542
C          2.63858        17.00615         1.83395
C          2.68522        18.43555         1.97265
C          3.85178         1.84328         1.19109
C          3.86242         3.41370         1.35589
C          5.07114         1.23354         0.68461
C          5.08036         4.12177         0.94811
C          3.81396         6.24149         1.14788
C          3.82867         7.68208         1.17268
C          5.04205         5.53915         0.87989
C          4.96704         8.38425         0.83480
C          3.69493        10.58955         1.06802
C          3.72541        12.01277         1.11296
C          4.87956         9.84490         0.59430
C          4.94653        12.74497         0.81827
C          3.77988        14.87312         1.34522
C          3.81447        16.29486         1.46854
C          4.97030        14.16206         0.96442
C          5.03339        17.01095         1.23847
C          3.84801        19.12304         1.77416
C          5.06005        18.43947         1.40691
C          6.26097         1.95862         0.55727
C          6.26709         3.41307         0.65040
C          7.47092         1.29037         0.24267
C          7.45018         4.13250         0.31384
C          6.22773         6.26456         0.57188
C          6.20791         7.70016         0.53871
C          7.43506         5.56432         0.29664
C          7.39340         8.40810         0.28434
C          6.12656        10.60123         0.27254
C          6.13480        12.07368         0.43741
C          7.44288         9.89676         0.51400
C          7.32372        12.77659         0.15184
C          6.17409        14.87907         0.70633
C          6.20532        16.31832         0.85465
C          7.32731        14.18065         0.26650
C          7.41826        17.04746         0.65289
C          6.25320        19.14104         1.22564
C          7.44776        18.46889         0.86209
C          8.67103         1.99407         0.01035
C          8.65760         3.43857        -0.00655
C          9.88040         1.30882        -0.22342
C          9.83290         4.15130        -0.34903
C          8.62108         6.29182        -0.02461
C          8.60712         7.71972        -0.00867
C          9.81964         5.59994        -0.37775
C          9.81423         8.44127        -0.26751
C          8.61028        10.58600        -0.13188
C          8.49765        12.04555        -0.50401
C          9.78944         9.89704        -0.31670
C          9.83013        12.75271        -0.35052
C          8.51948        14.95927        -0.13542
C          8.60191        16.38427         0.23723
C          9.80866        14.22514        -0.43106
C          9.82187        17.07719         0.13172
C          8.66281        19.16965         0.69297
C          9.85286        18.49825         0.36671
C         11.07383         2.01123        -0.50285
C         11.04382         3.44618        -0.60004
C         12.29031         1.32598        -0.72126
C         12.23208         4.14681        -0.97636
C         10.97168         6.32731        -0.73308
C         10.99350         7.74240        -0.62582
C         12.13680         5.60534        -1.36301
C         12.23221         8.47683        -0.84926
C         11.04356        10.61088        -0.50587
C         11.02548        12.07063        -0.40427
C         12.22504         9.91226        -0.67760
C         12.29323        12.79725        -0.44307
C         11.07137        14.96635        -0.29213
C         11.06116        16.37509        -0.11071
C         12.28482        14.25445        -0.34679
C         12.29054        17.08940        -0.08981
C         11.08779        19.20122         0.25914
C         12.29217        18.53189         0.03286
C         13.46918         2.02663        -1.04396
C         13.41214         3.45848        -1.20071
C         14.70059         1.34972        -1.20260
C         14.60763         4.17408        -1.78064
C         13.45451         6.34545        -1.24703
C         13.42479         7.79614        -1.14056
C         14.61636         5.65731        -1.47148
C         14.67074         8.52395        -1.33772
C         13.56511        10.60827        -0.54146
C         13.48587        12.11236        -0.60493
C         14.55316        10.03180        -1.57213
C         14.74958        12.80971        -0.65690
C         13.50280        14.97417        -0.26193
C         13.52020        16.38590        -0.18662
C         14.76456        14.22922        -0.25351
C         14.76462        17.12477        -0.34742
C         13.52913        19.23999        -0.06084
C         14.73877        18.58500        -0.29089
C         15.92734         2.06479        -1.30592
C         15.91728         3.48616        -1.44989
C         17.15531         1.37695        -1.17708
C         17.12985         4.20917        -1.33811
C         15.89185         6.37871        -1.80688
C         15.84813         7.84750        -1.47420
C         17.14598         5.64141        -1.39339
C         17.14740         8.58194        -1.64032
C         15.92551        10.79825        -1.65792
C         15.91862        12.18417        -1.04035
C         17.08528        10.00043        -1.03541
C         17.18688        12.89372        -1.09909
C         16.04901        15.02272        -0.46986
C         15.95052        16.47478        -0.61618
C         17.22635        14.30384        -0.96870
C         17.12729        17.23442        -1.17447
C         15.97309        19.29517        -0.35483
C         17.18505        18.65718        -0.65660
C         18.37871         2.07709        -1.06751
C         18.36167         3.51193        -1.09747
C         19.60680         1.39209        -0.89691
C         19.57897         4.22580        -0.87730
C         18.34118         6.33379        -1.16001
C         18.31652         7.80754        -1.05812
C         19.56760         5.66331        -0.90473
C         19.61537         8.56177        -1.06032
C         18.41019        10.72145        -1.26698
C         18.40012        12.17239        -1.31350
C         19.58513        10.01523        -1.35069
C         19.63955        12.88204        -1.36043
C         18.42834        15.03733        -1.18189
C         18.44431        16.49255        -1.08847
C         19.62222        14.31076        -1.33222
C         19.62333        17.21350        -1.06994
C         18.41797        19.32602        -0.60779
C         19.65365        18.64991        -0.81358
C         20.81329         2.09425        -0.67832
C         20.77963         3.51968        -0.63202
C         22.05266         1.40329        -0.51576
C         21.99281         4.26358        -0.14970
C         20.81722         6.39768        -0.85350
C         20.84955         7.77282        -1.12888
C         22.05011         5.69826        -0.60647
C         22.12487         8.47986        -1.20071
C         20.84773        10.70657        -1.83143
C         20.87557        12.16505        -1.44220
C         22.14494         9.94908        -1.47223
C         22.12433        12.82301        -1.32385
C         20.88794        15.04385        -1.46363
C         20.91398        16.54119        -1.30858
C         22.11455        14.29114        -1.09922
C         22.17913        17.23114        -0.95204
C         20.88181        19.32123        -0.70712
C         22.15061        18.65464        -0.74233
C         23.28426         2.09344        -0.39905
C         23.28835         3.52032        -0.34613
C         24.52782         1.39642        -0.35582
C         24.50471         4.22729        -0.29951
C         23.27338         6.38618        -0.51195
C         23.32720         7.81243        -0.67188
C         24.50929         5.66708        -0.31803
C         24.51528         8.52813        -0.49472
C         23.22855        10.69656        -0.70759
C         23.31992        12.13193        -1.12896
C         24.54978         9.96991        -0.62818
C         24.62031        12.81939        -1.10596
C         23.36676        15.05086        -0.87330
C         23.37679        16.53400        -0.87408
C         24.66081        14.33921        -1.05338
C         24.61794        17.19116        -0.59646
C         23.36930        19.32537        -0.54416
C         24.61301        18.63046        -0.48358
C         25.74759         2.08001        -0.27524
C         25.74776         3.51767        -0.26441
C         27.00423         1.38940        -0.19212
C         26.97404         4.22937        -0.20662
C         25.73296         6.36984        -0.27365
C         25.74910         7.80587        -0.28213
C         26.97272         5.65683        -0.20034
C         26.95852         8.49938        -0.14060
C         25.72577        10.68121        -0.43947
C         25.80742        12.10295        -0.61739
C         26.91998         9.97546         0.15477
C         26.98224        12.82281        -0.33200
C         25.86052        15.01552        -0.54677
C         25.81857        16.45690        -0.40087
C         26.99567        14.26144        -0.28707
C         27.04579        17.15326        -0.16788
C         25.83788        19.30349        -0.29468
C         27.06132        18.59730        -0.17207
C         28.21333         2.06969        -0.14361
C         28.22090         3.52300        -0.18350
C         29.46948         1.38012         0.02140
C         29.43063         4.23062        -0.17905
C         28.20065         6.36930        -0.15049
C         28.19469         7.80007        -0.10236
C         29.43837         5.65287        -0.14434
C         29.43021         8.51721        -0.06602
C         28.22275        10.69185        -0.07509
C         28.22616        12.09477        -0.11107
C         29.43704         9.95269        -0.06604
C         29.46664        12.81134        -0.05407
C         28.19757        14.95284         0.30209
C         28.25045        16.43338         0.01222
C         29.48992        14.22966         0.02494
C         29.48260        17.10992         0.09928
C         28.29866        19.26552        -0.02368
C         29.51177        18.55375         0.08321
C         30.68333         2.04567         0.01912
C         30.72631         3.49345        -0.41425
C         31.91955         1.38202         0.26382
C         31.94201         4.24142         0.06631
C         30.67164         6.37228        -0.08012
C         30.66321         7.79583        -0.05707
C         31.91646         5.66135         0.07383
C         31.90070         8.50948        -0.02736
C         30.67892        10.65554        -0.08487
C         30.69351        12.08000        -0.05224
C         31.90762         9.93090        -0.06676
C         31.93728        12.77513        -0.00542
C         30.70469        14.93582         0.08177
C         30.71714        16.37576         0.16959
C         31.95213        14.22136         0.09115
C         31.94577        17.06624         0.24582
C         30.76194        19.21924         0.20193
C         31.96783        18.50657         0.28887
C         33.13385         2.07226         0.34682
C         33.15082         3.52804         0.28522
C         34.35840         1.39684         0.62923
C         34.36556         4.21595         0.47956
C         33.12172         6.39454         0.24258
C         33.13206         7.79465         0.10851
C         34.35784         5.69317         0.73378
C         34.38013         8.51388         0.10885
C         33.14698        10.63986        -0.08550
C         33.14421        12.05072        -0.07491
C         34.38524         9.90204        -0.04628
C         34.43080        12.82461        -0.23654
C         33.15742        14.91710         0.26427
C         33.18362        16.34060         0.29214
C         34.41114        14.12945         0.56100
C         34.41946        17.04582         0.32979
C         33.22950        19.16966         0.42234
C         34.42475        18.46672         0.43844
C         35.56096         2.08119         0.77777
C         35.59531         3.52537         0.64728
C         36.77586         1.40421         1.13414
C         36.82503         4.22398         0.68437
C         35.64827         6.38421         0.38125
C         35.62846         7.76896         0.20376
C         36.88123         5.65691         0.45162
C         36.86719         8.46841         0.11402
C         35.63644        10.64019         0.00630
C         35.64914        12.01072         0.07238
C         36.88791         9.89247         0.07785
C         36.90797        12.72012         0.51901
C         35.68863        14.90676         0.35047
C         35.67555        16.31519         0.25923
C         36.90169        14.21067         0.30875
C         36.90902        17.00554         0.15252
C         35.75359        19.18139         0.62784
C         36.84781        18.47905        -0.19562
C         37.96590         2.08220         1.26619
C         38.04861         3.50536         0.94786
C         39.17680         1.39321         1.67739
C         39.27319         4.14004         0.90077
C         38.11829         6.31955         0.27666
C         38.09178         7.73462         0.05079
C         39.44707         5.54727         0.37279
C         39.27235         8.51939        -0.10578
C         38.10208        10.58545         0.14527
C         38.11032        12.07010        -0.13706
C         39.32598         9.88065         0.16887
C         39.41411        12.77928         0.11776
C         38.13828        14.89666         0.28897
C         38.12494        16.30970         0.24886
C         39.41116        14.15513         0.26380
C         39.39081        17.06985         0.55812
C         38.18861        19.15588        -0.15201
C         39.36668        18.49681         0.04675
C         40.36441         2.02403         1.74413
C         40.54532         3.46137         1.34244
C         41.08470         4.29951         2.49988
C         40.53361         6.29137         1.20412
C         41.02082         7.47938         0.73564
C         41.07809         5.64318         2.39218
C         41.94126         8.49615         1.24349
C         40.54290        10.63106         0.68662
C         40.67387        11.96310        -0.12643
C         41.79922         9.82735         1.00472
C         41.91129        12.76545         0.13246
C         40.66042        14.88873         0.27582
C         40.66998        16.30998         0.25266
C         41.88192        14.11805         0.25824
C         41.84034        17.05957         0.08670
C         40.63091        19.17559        -0.07833
C         41.81465        18.47213        -0.03261
O          4.02235         2.51545         2.48412
O         15.63977        14.54586         0.87448
O         40.46316         7.89646        -0.50046
O         20.99761        15.89319        -2.64859
O          8.93935        14.71452        -1.53807
O          5.28996        10.13210        -0.81444
O         22.55157         9.10467        -2.57059
O         24.83970        13.64959        -2.32221
O         18.84752         8.27232         0.21856
O         22.58000        14.56229         0.28668
O          2.65988         8.20085         3.17572
H          2.67237         7.23549         3.35072
O         22.71155        10.70604         0.67157
H         23.36061        11.17468         1.23905
O         20.74795        10.71063        -3.28747
H         21.33257         9.98043        -3.60925
O         36.38669        18.56644        -1.57777
H         37.01871        18.07150        -2.13961
O         40.67844        11.56605        -1.54141
H         41.04384        12.31548        -2.05786
O          7.66075        10.07049         1.96815
H          8.48601         9.59522         2.20396
O         16.80171         9.92026         0.36494
H         17.53276         9.40977         0.78991
O         17.43498         8.67957        -3.07337
H         17.11500         7.83383        -3.48206
O         21.81877         4.34366         1.32936
H         22.58506         4.84618         1.68100
O         39.37574        17.19538         2.02786
H         40.19454        17.67264         2.28147
O         30.87563         3.44649        -1.88684
H         30.11550         2.93255        -2.23476
O         36.10808        19.18028         2.01613
H         36.42105        18.28240         2.25416
O         28.01419        14.85646         1.76858
H         28.75984        15.33791         2.18642
O         14.42983         4.08679        -3.24768
H         15.17047         4.61011        -3.64089
O         14.07531        10.26520         0.77449
H         13.64331        10.84078         1.43843
O         37.90685        12.15964        -1.58478
H         38.72767        11.79459        -1.99465
O         34.36763        13.74739         1.97701
H         34.24081        14.56505         2.50332
O         13.90350        10.14883        -2.85251
H         14.55907        10.58679        -3.45497
O         34.52908        13.21464        -1.64145
H         34.82942        12.43493        -2.15392
O         40.16364        11.09693         2.01601
H         39.83397        10.33527         2.53681
O         26.69215        10.06355         1.61956
H         27.48106         9.68027         2.05925
O         11.86574         5.58780        -2.80961
H         12.57416         5.03264        -3.21822
O         36.99368        12.50159         1.95477
H         36.15045        12.84538         2.33646
O          8.20532        12.07315        -1.93998
H          8.29922        13.01731        -2.21933
O         16.22328        11.03205        -3.05532
H         16.76935        10.27151        -3.38446
O         15.94881         6.37886        -3.32449
H         15.12249         6.82122        -3.62510
O         39.95850         5.37080        -0.98640
H         40.19681         6.27270        -1.31491
O         41.52942         3.48978         0.27265
H         41.20622         4.12586        -0.41234
O         34.27606         5.80546         2.22075
H         33.45751         5.34067         2.49847
O         16.85886        17.34661        -2.62001
H         17.63807        17.77911        -3.03034
H          0.42364         1.44062         1.07456
H          0.42325         3.86111         1.41534
H          2.50481         0.18217         0.63962
H          0.41803         5.78851         0.91934
H          0.40650         8.22445         1.16580
H          0.56145        10.04775         2.32182
H          0.51795        12.49684         2.26621
H          0.46427        14.38914         2.13154
H          0.52814        16.83655         2.32607
H          1.76376        18.96726         2.25179
H          5.05157         0.17348         0.38935
H          3.87719        20.21618         1.89155
H          7.47784         0.19106         0.20172
H          6.27275        20.23131         1.37131
H          9.89497         0.20947        -0.19069
H          8.68125        20.25878         0.84734
H         12.31652         0.22968        -0.63591
H         11.08976        20.29426         0.38584
H         14.72856         0.25498        -1.09764
H         13.51641        20.33679         0.03028
H         17.15207         0.27940        -1.10150
H         15.97583        20.37104        -0.11940
H         19.61396         0.29206        -0.90603
H         18.43766        20.39344        -0.33786
H         22.05489         0.30368        -0.54976
H         20.87103        20.40593        -0.51979
H         24.52308         0.29632        -0.38132
H         23.36677        20.41710        -0.40555
H         26.99954         0.28940        -0.15796
H         25.84748        20.40264        -0.24354
H         29.44669         0.29464         0.20542
H         28.31755        20.36560        -0.00854
H         31.90980         0.29462         0.43703
H         30.78210        20.31932         0.21674
H         34.34409         0.30228         0.74284
H         33.24311        20.26760         0.49794
H         36.74142         0.32064         1.32334
H         35.65969        20.24807         0.30693
H         39.09465         0.32764         1.94161
H         38.21318        20.21864        -0.44332
H         41.26797         1.47786         2.05317
H         41.52169         3.80401         3.37944
H         41.54980         6.27525         3.16159
H         42.85158         8.15572         1.76459
H         42.60780        10.46661         1.39916
H         42.88026        12.24393         0.12350
H         42.83793        14.64761         0.38203
H         42.81141        16.55575        -0.01666
H         40.63450        20.25793        -0.27332
H         42.76782        19.00485        -0.15951
