         651
 CSIRO Nanostructure Databank - Neutral Graphene Oxide Data Set
C          5.67330        31.85078         0.84409
C          5.72267        33.20797         0.96092
C          8.16945        27.43822         0.25669
C          8.07233        28.81857         0.77818
C          6.84180        29.65921         0.74911
C          8.17331        31.78493         0.61683
C          6.87103        31.02587         0.78898
C          8.15593        33.21030         1.11652
C          6.97436        33.94262         1.13216
C          8.18099        36.11096         1.30864
C          6.99327        35.37707         1.23652
C          8.26171        37.53219         1.19147
C         10.60077        23.23189        -0.24043
C         10.55928        24.56098         0.34579
C          9.46787        25.33986         0.00610
C         10.63221        27.40991         0.60629
C          9.36855        26.74266         0.32471
C         10.62462        28.89874         0.39380
C          9.37469        29.52376         0.97813
C         10.68038        31.72474         1.18357
C          9.36564        31.02017         1.15325
C         10.70555        33.19025         1.13670
C          9.42661        33.85957         1.43925
C         10.72718        36.06712         1.32483
C          9.44189        35.38698         1.54751
C         10.74035        37.47621         1.23517
C          9.48438        38.22111         1.20150
C         10.74041        40.36276         1.10181
C          9.53946        39.64819         1.13146
C         10.80364        41.77222         0.95879
C         13.23831        19.04922        -0.57546
C         13.02897        20.34477        -0.06131
C         11.78753        20.96802        -0.33691
C         13.06983        23.07789         1.45983
C         11.37396        22.19672         0.25200
C         12.98294        24.54786         1.60753
C         11.68994        25.23436         1.10524
C         13.05550        27.41670         1.07947
C         11.79276        26.71228         0.87587
C         13.08285        28.81242         0.94996
C         11.89738        29.58709         0.79976
C         13.13065        31.73461         0.81511
C         11.91905        30.97839         0.93717
C         13.13836        33.11445         0.89012
C         11.90602        33.86730         1.07942
C         13.14918        36.02332         1.08985
C         11.92583        35.32865         1.17085
C         13.18335        37.42135         1.21843
C         11.98323        38.14981         1.22356
C         13.31573        40.34431         1.28993
C         12.02282        39.61799         1.07923
C         13.23049        41.83309         1.64735
C         12.01377        42.48692         1.01947
C         13.29927        44.55899         0.53963
C         12.08194        43.84556         0.67658
C         13.20651        46.00361         0.10181
C         15.97193        15.10469        -1.75872
C         15.80383        16.35744        -1.16882
C         14.56733        17.04567        -1.08409
C         15.66814        19.01158        -0.05951
C         14.47877        18.35736        -0.57332
C         15.59451        20.44403         0.31791
C         14.24142        21.10471         0.41648
C         15.44886        23.05479         1.70431
C         14.20105        22.39184         1.15733
C         15.47548        24.50791         1.25193
C         14.25401        25.29561         1.44921
C         15.57834        27.37065         1.31741
C         14.29864        26.68829         1.28866
C         15.61601        28.84322         1.36033
C         14.33182        29.58623         1.13361
C         15.64656        31.64247         0.36049
C         14.31651        30.90651         0.36832
C         15.59230        33.15019         0.16926
C         14.45724        33.85420         0.93096
C         15.66088        36.03068         0.59630
C         14.33025        35.31925         0.46345
C         15.69838        37.38531         0.91465
C         14.51298        38.02360         1.61454
C         15.87051        40.29393         1.47931
C         14.56187        39.56388         1.65055
C         15.84166        41.80617         1.33436
C         14.55247        42.57572         1.34497
C         15.76940        44.54152         0.27329
C         14.53378        43.92810         0.71702
C         15.75637        45.94775        -0.10405
C         14.53916        46.70480        -0.02211
C         15.78954        48.80581        -0.29709
C         14.56770        48.08269        -0.12322
C         15.82316        50.21026        -0.32581
C         18.50056        11.13886        -3.39535
C         18.02481        12.05902        -2.48501
C         17.17709        13.18344        -2.58588
C         18.23924        14.74599        -0.82758
C         17.17568        14.31421        -1.69141
C         18.26396        16.18704        -0.50723
C         17.01542        17.05014        -0.70983
C         18.08878        19.02733         0.41961
C         16.88530        18.36415        -0.04650
C         18.06627        20.36635         0.86086
C         16.80185        21.08346         0.93568
C         17.97784        23.04849         2.00395
C         16.75390        22.34800         1.44805
C         18.02660        24.51489         1.63611
C         16.83255        25.22887         1.23843
C         18.06683        27.39592         1.35817
C         16.81259        26.70003         1.32164
C         18.07934        28.82569         1.14115
C         16.90073        29.51764         1.10190
C         18.12805        31.75207         1.13940
C         16.91039        30.95106         0.72221
C         18.11080        33.17815         0.61468
C         16.90600        33.85500         0.43514
C         18.09093        35.98518         0.15589
C         16.87492        35.28767         0.35549
C         17.98345        37.42567         0.09635
C         16.90630        38.12942         0.70882
C         18.22261        40.21008         0.54134
C         17.03543        39.54043         0.92196
C         18.36084        41.68539         0.68783
C         17.10253        42.49941         0.90624
C         18.17888        44.38204        -0.34824
C         16.98702        43.83831         0.30385
C         18.17368        45.87641        -0.69639
C         16.95471        46.63603        -0.39779
C         18.23959        48.72884        -0.71145
C         17.00518        48.05562        -0.46954
C         18.28170        50.17754        -0.65176
C         17.03664        50.92255        -0.46792
C         18.26856        53.06010        -0.62264
C         17.05706        52.32961        -0.54074
C         18.30768        54.43506        -0.82562
C         21.28269         7.40693        -5.01460
C         21.16510         8.60687        -4.25709
C         19.91641         9.19496        -4.04344
C         20.92199        11.10297        -2.70602
C         19.65552        10.23409        -2.98655
C         20.86584        12.23483        -1.71433
C         19.70476        12.66828        -1.15217
C         20.73161        14.67674        -0.01925
C         19.47935        13.97931        -0.49626
C         20.67095        16.10845         0.43660
C         19.34221        16.82678         0.31062
C         20.51149        18.96385         0.71590
C         19.31263        18.30277         0.43447
C         20.52627        20.34541         1.09557
C         19.28498        21.02688         1.23438
C         20.49159        23.05088         1.94688
C         19.28894        22.37605         1.68454
C         20.43149        24.50651         2.39167
C         19.36378        25.19512         1.49066
C         20.51252        27.42737         1.62433
C         19.30596        26.71455         1.54202
C         20.59080        28.84837         1.36556
C         19.37252        29.48936         0.71419
C         20.67291        31.69034         0.58738
C         19.37395        30.99119         0.80232
C         20.60098        33.19158         0.73407
C         19.35803        33.88183         0.54666
C         20.61960        35.92191         0.06464
C         19.34338        35.27485         0.20335
C         20.77460        37.08880        -0.64983
C         18.96712        38.19698        -0.53709
C         20.61845        40.07569        -0.32578
C         19.22341        39.52888        -0.21234
C         20.75062        41.54740        -0.06405
C         19.52585        42.35401         0.06717
C         20.68255        44.44172        -0.61332
C         19.49551        43.70193        -0.25745
C         20.68440        45.82735        -0.83937
C         19.45875        46.57704        -0.79212
C         20.70706        48.67110        -1.16077
C         19.44561        47.97740        -0.85077
C         20.71811        50.18128        -1.10268
C         19.48194        50.86633        -0.72226
C         20.78781        53.02111        -0.86503
C         19.55580        52.31991        -0.32883
C         20.77973        54.37712        -1.07942
C         19.54286        55.14443        -1.00930
C         20.81375        57.26758        -1.26107
C         19.57813        56.52336        -1.17486
C         20.79932        58.65364        -1.35577
C         23.85209         4.85777        -5.95786
C         22.62456         5.51098        -5.85234
C         23.71175         7.37422        -4.65741
C         22.52341         6.76360        -5.18141
C         23.60893         8.59844        -3.94227
C         22.36530         9.19681        -3.71261
C         23.50704        10.99293        -2.34584
C         22.29274        10.51507        -3.05415
C         23.43061        12.26671        -1.58989
C         22.11558        12.97882        -1.38968
C         23.21120        14.73517        -0.02747
C         22.05637        14.12170        -0.42403
C         23.19925        16.09555         0.66209
C         21.91348        16.90202         0.41393
C         22.87356        19.19062         0.35867
C         21.77248        18.27798         0.51527
C         22.99363        20.39318         1.00560
C         21.74960        21.03128         1.39357
C         23.00530        23.04831         2.16467
C         21.72753        22.38378         1.78845
C         23.06048        24.52784         2.21616
C         21.78238        25.25548         2.36075
C         23.03778        27.45142         1.77245
C         21.74967        26.73659         2.05552
C         22.98253        28.92745         2.05326
C         21.73502        29.58953         1.58958
C         22.99149        31.89302         1.77643
C         21.73793        31.07242         1.49846
C         23.03742        33.25633         1.20559
C         21.83609        33.88721         0.86356
C         23.13200        35.97138         0.25186
C         21.83071        35.40205         0.80229
C         23.12375        37.28615        -0.31599
C         21.92781        37.91840        -0.62102
C         23.10353        40.12269        -0.93433
C         21.78107        39.36370        -1.06044
C         23.17417        41.47667        -0.84368
C         22.01819        42.26384        -0.37072
C         23.21812        44.40842        -1.02329
C         21.98326        43.73848        -0.56166
C         23.19515        45.82811        -1.03668
C         21.95695        46.54148        -0.96660
C         23.21984        48.66482        -0.97697
C         21.98310        47.94256        -1.03669
C         23.22698        50.12313        -0.89125
C         22.01746        50.86704        -0.94244
C         23.27651        52.96644        -1.03211
C         22.02718        52.26827        -0.94341
C         23.29241        54.35980        -1.24703
C         22.01435        55.06831        -1.60573
C         23.29541        57.19235        -1.34765
C         22.06443        56.54261        -1.30406
C         23.36776        58.65402        -1.20235
C         22.02683        59.44007        -1.24743
C         23.32338        61.43931        -1.89783
C         22.10492        60.82221        -1.71864
C         25.01131         5.42281        -5.43177
C         26.15181         7.26711        -4.27540
C         24.98158         6.70291        -4.80042
C         26.18234         8.63996        -3.78997
C         24.84157         9.32075        -3.56026
C         25.95475        10.87577        -1.91453
C         24.73951        10.40752        -2.55542
C         25.85207        11.78704        -0.70141
C         24.54083        12.58601        -0.63136
C         25.77796        14.53357         0.48023
C         24.47382        13.91882         0.05222
C         25.77939        16.00784         0.74349
C         24.54798        16.77169         0.44012
C         25.86567        18.86195         0.66882
C         24.76540        18.08707         0.13459
C         25.66472        20.29328         1.05612
C         24.32718        21.03915         1.17946
C         25.57380        23.08321         2.11918
C         24.29817        22.29222         2.02303
C         25.51885        24.53772         1.92558
C         24.29468        25.21345         2.04856
C         25.57633        27.45144         2.20028
C         24.31139        26.70177         1.88171
C         25.58693        28.95348         2.26930
C         24.25536        29.69589         2.27104
C         25.61257        31.91564         2.03977
C         24.28285        31.20667         2.16750
C         25.61743        33.38731         1.61581
C         24.30661        34.03723         1.22886
C         25.60835        35.94993         0.17038
C         24.34054        35.32350         0.48035
C         25.63930        37.24423        -0.38544
C         24.38041        37.90169        -0.75231
C         25.65229        40.08987        -1.09925
C         24.36239        39.36240        -1.14951
C         25.66597        41.48265        -1.18824
C         24.37018        42.20928        -1.42450
C         25.65412        44.39151        -1.28360
C         24.40685        43.69612        -1.15311
C         25.65134        45.81133        -1.25856
C         24.43179        46.52703        -1.14106
C         25.70095        48.61032        -0.65295
C         24.42945        47.94818        -1.00836
C         25.68711        50.10842        -0.44845
C         24.44746        50.83483        -0.76085
C         25.76433        52.93788        -0.97858
C         24.49716        52.23937        -0.88991
C         25.75851        54.33522        -1.26887
C         24.52581        55.04893        -1.35345
C         25.77233        57.16835        -1.66810
C         24.52827        56.47177        -1.49614
C         25.76655        58.58841        -1.81722
C         24.59854        59.34635        -1.63069
C         24.55184        60.73946        -1.83380
C         27.42250         9.12704        -3.06078
C         28.37728        10.84706        -1.52643
C         27.19798        10.33137        -2.17753
C         28.35890        11.98110        -0.75035
C         27.09716        12.63426        -0.47567
C         28.31620        14.60083         0.37945
C         27.06896        13.88241         0.11130
C         28.30816        15.98197         0.67117
C         27.05467        16.75104         0.37958
C         28.23780        18.77360         1.36513
C         27.03539        18.16702         0.89440
C         28.14181        20.16859         1.85975
C         26.83159        20.87761         1.81035
C         28.10165        23.10224         1.53225
C         26.88059        22.37321         1.98375
C         28.05026        24.46786         1.40942
C         26.83815        25.21724         1.86283
C         28.02301        27.49971         1.44157
C         26.86592        26.70812         1.95151
C         28.05902        28.95876         1.72588
C         26.84671        29.69138         1.91834
C         28.12595        31.80314         1.73344
C         26.84413        31.09054         1.84066
C         28.13006        33.35197         1.48884
C         26.87719        34.01824         1.11992
C         28.07498        35.93935         0.06764
C         26.85679        35.26252         0.45388
C         28.09038        37.24788        -0.42922
C         26.85225        37.96291        -0.62947
C         28.13939        40.03298        -1.36707
C         26.85718        39.33298        -0.97993
C         28.13639        41.52429        -1.16470
C         26.90273        42.22507        -1.23168
C         28.15852        44.35097        -1.68484
C         26.87558        43.63808        -1.35235
C         28.14895        45.78624        -1.15731
C         26.91168        46.58191        -1.60663
C         28.18681        48.64389        -0.90400
C         26.98866        47.97597        -0.99087
C         28.29398        50.05642        -0.43778
C         26.99276        50.84507        -0.40575
C         28.23514        52.90582        -1.16611
C         26.99225        52.26077        -0.81963
C         28.20144        54.29068        -1.50928
C         26.99987        55.02772        -1.49206
C         26.97460        56.43162        -1.71789
C         29.62382        12.47709        -0.08161
C         30.75401        14.63393         0.57435
C         29.57544        13.94083         0.29846
C         30.75387        16.00472         0.95537
C         29.49324        16.68046         0.98386
C         30.66487        18.74929         1.80943
C         29.43096        18.07315         1.36508
C         30.63649        20.25941         1.93891
C         29.36964        20.99512         1.75428
C         30.62660        23.02482         0.99230
C         29.34349        22.32655         1.43309
C         30.56685        24.52597         1.42172
C         29.27255        25.20621         0.86828
C         30.55375        27.45199         1.27349
C         29.26562        26.74241         1.05433
C         30.52647        28.88231         1.33536
C         29.29582        29.63162         1.44576
C         30.51166        31.71834         0.75203
C         29.33188        31.03965         1.40487
C         30.71258        33.16679         1.22737
C         29.43531        34.00364         1.11436
C         30.58024        35.77168        -0.36226
C         29.37783        35.30122         0.38954
C         30.58380        37.20845        -0.75800
C         29.33551        37.96868        -0.66107
C         30.61912        40.07985        -0.74646
C         29.37994        39.33825        -0.87913
C         30.60372        41.53304        -0.76445
C         29.37922        42.23025        -1.06479
C         30.63446        44.35320        -1.16036
C         29.40550        43.63261        -1.22229
C         30.68283        45.76024        -1.38498
C         29.42623        46.49864        -1.55446
C         30.74088        48.68556        -1.32471
C         29.42962        47.99962        -1.42187
C         30.76929        50.05632        -1.14060
C         29.62300        50.83524        -0.55271
C         29.44656        52.19445        -1.17856
C         31.96298        16.72538         1.22921
C         33.14115        18.83348         1.85288
C         31.96779        18.07550         1.59813
C         33.14002        20.24123         1.98788
C         31.90168        20.99574         1.79198
C         33.15369        23.07900         1.52529
C         31.88815        22.32620         1.48034
C         33.13507        24.58118         1.42954
C         31.83406        25.30541         0.98711
C         32.95888        27.48729         1.80398
C         31.73722        26.74543         1.44540
C         33.02827        28.89160         1.37407
C         31.78530        29.59144         1.21405
C         33.06153        31.57283         0.39282
C         31.79570        30.94965         0.90592
C         33.10143        33.07944         0.46622
C         31.92490        33.78147         0.54555
C         33.14608        35.86027        -0.20876
C         31.88444        35.09260        -0.13067
C         33.14231        37.24104        -0.37071
C         31.90749        37.96254        -0.74539
C         33.03829        40.09925        -0.10942
C         31.82700        39.40741        -0.56532
C         33.00813        41.60464        -0.03752
C         31.79540        42.27151        -0.56621
C         33.11417        44.36268        -0.90583
C         31.84249        43.65669        -0.85051
C         33.12144        45.74446        -1.24872
C         31.91778        46.47716        -1.39941
C         31.91901        47.90380        -1.47503
C         34.32599        20.97837         2.19918
C         35.51752        23.12880         2.24563
C         34.34334        22.38576         2.09955
C         35.51973        24.55778         2.18919
C         34.17221        25.24373         2.36837
C         35.50843        27.51302         2.12279
C         34.19690        26.78165         2.25198
C         35.51360        28.87358         1.55148
C         34.28858        29.54822         1.25953
C         35.53911        31.61434         0.74878
C         34.32915        30.91249         0.84406
C         35.56945        33.01538         0.36982
C         34.35877        33.73683         0.19123
C         35.59844        35.87150        -0.12749
C         34.38014        35.15675        -0.02729
C         35.61090        37.27581        -0.21619
C         34.36270        37.99016        -0.26293
C         35.55452        40.14895        -0.24236
C         34.33439        39.39317        -0.20271
C         35.54154        41.54085        -0.23239
C         34.32543        42.37375         0.10013
C         34.30421        43.68870        -0.62443
C         36.70092        25.24853         2.07848
C         38.05172        27.33403         1.54078
C         36.79463        26.71313         2.10992
C         38.00422        28.84170         1.45452
C         36.75494        29.53788         1.34507
C         38.00709        31.62302         0.88703
C         36.77171        30.92736         1.00028
C         38.01792        33.02340         0.56253
C         36.82063        33.69143         0.29031
C         38.04086        35.90825         0.42661
C         36.89805        35.11379        -0.23092
C         38.17965        37.31242        -0.19035
C         36.84053        38.03464        -0.23353
C         36.79737        39.40688        -0.28728
C         39.20047        29.53357         1.32690
C         40.47780        31.63590         0.94283
C         39.23205        30.92734         1.07292
C         40.50866        32.97403         0.67820
C         39.29104        33.74079         0.52051
C         39.32038        35.10949         0.40173
O          8.78079        28.86654         2.11146
O         25.66939        28.13285         3.47958
O         23.82636        18.81386        -0.57551
O         25.66869         9.64834        -4.73000
O         22.76790        59.18747         0.00527
O         36.34341        27.36244         3.33241
O         20.62173        49.47366        -2.39907
O         21.60744        11.52335        -3.90618
O         28.21632        32.81262         2.83207
O          9.42916        34.54708         2.74091
O         25.57206        49.19683         0.68970
O         29.61921        35.26824         1.85277
O         27.20999        25.92394         3.13966
O         18.08439        17.02312        -1.71750
O         27.25875        20.22759         3.04173
O         30.57934        19.39276         3.12507
O         33.63974        23.81361         0.30738
O         20.98453        40.55206         1.00090
O         23.41289        29.28768         3.39660
O         11.85511        22.40637         1.54972
O         24.12199        12.66567         0.76948
O         18.55032        11.88984        -1.17101
O         33.34638        27.37868         3.28769
O         11.93229        24.97148         2.52249
O         22.31633        43.15122         0.77179
O         24.88800        34.21516         2.57866
O         16.16031        24.71544        -0.01530
O         19.74692        37.53796        -1.49136
O         23.75146        27.09465         0.55107
O         23.02484        13.35712        -2.48896
O         26.39866        22.75234         3.30800
O         17.94528        44.85037        -1.72516
O         16.54279        31.10442        -0.70027
O         24.95607        31.75760         3.33727
O         27.68562        50.44250         0.83428
O         12.89920        40.04613        -0.06882
O         14.87534        29.52511         2.47418
O         21.77409        26.26361         3.45278
O         23.61030        22.27005         3.29732
O         32.77193        40.81397         1.17806
O         15.39421        42.50933         2.54672
O         28.38663        27.31215         0.01096
O         15.09918        21.28195        -0.79558
O         21.89778        31.74451         2.76952
O          9.89831        31.36390         2.44051
O         31.30416        37.47333        -1.99581
O         31.09621        34.90440        -1.40942
O         24.30287        38.33053        -2.18952
O         18.08792        42.31324         1.98664
O         29.30805        47.34380        -2.73512
O         19.75215        16.23707         1.57527
O         15.33455        39.97196         2.81393
O         19.94791        13.84311         0.90163
O         25.77840        15.08186         1.86117
O         25.18667        21.20310         0.00395
O          8.40780        31.86007        -0.82977
H          7.61195        32.25787        -1.24210
O         30.54182        24.59021         2.85230
H         29.70071        24.21135         3.18828
O         14.88214        33.86981         2.31306
H         14.24254        34.39825         2.83641
O         23.14253        15.85546         2.09598
H         23.96678        15.37254         2.35347
O         19.35559         9.47580        -1.78965
H         18.84915        10.06624        -1.18294
O         30.77653        12.19509        -0.88034
H         30.71500        12.71616        -1.70666
O         34.48408        42.72209         1.51795
H         34.01368        42.01990         2.02727
O         17.83421        22.97903         3.47641
H         18.59110        23.48946         3.87194
O         19.80242        24.89765         0.11895
H         19.11638        25.23153        -0.49904
O         12.99808        41.90499         3.06937
H         13.88843        41.93255         3.49866
O         38.74712        37.23859        -1.50049
H         38.25708        36.54213        -1.99666
O         38.22677        26.80007         0.21790
H         38.97672        27.26364        -0.20804
O         37.20899        35.00384        -1.65898
H         36.47760        34.51001        -2.08694
O         15.36517        33.30069        -1.26138
H         15.97933        32.67223        -1.70665
O         28.23774        44.42585        -3.14924
H         28.17720        43.51151        -3.50063
O         37.70418        36.12382         1.82069
H         37.66952        35.25139         2.26665
O         31.85917        25.39196        -0.45059
H         32.32808        24.58276        -0.77307
O         12.51103        46.08578        -1.15916
H         13.07422        45.67249        -1.84555
O         28.11660        45.67648         0.28152
H         27.92388        46.55817         0.66695
O         31.02880        33.07708         2.63177
H         30.70755        33.89632         3.06872
O         19.51654        29.15951        -0.71722
H         20.26822        29.71039        -1.04977
O         19.96918        24.53740         3.75767
H         20.42329        25.29683         4.20195
O         30.71974        22.88343        -0.44541
H         30.13858        23.56756        -0.86195
O         30.09136        51.13425         0.80712
H         29.28846        51.14421         1.38398
O         13.96085        35.41326        -0.93858
H         14.54985        34.81801        -1.46151
O         14.01929        30.53490        -1.01004
H         14.88646        30.43969        -1.46891
O         26.85473        46.75353        -3.04048
H         27.32501        45.99137        -3.45828
O         25.82551        10.84388         0.41252
H         25.35492        11.29822         1.15246
O         15.22123        23.07782         3.14324
H         16.10066        23.05683         3.60176
O         10.51902        29.12658        -1.05464
H         11.41357        29.03006        -1.44555
O         32.99535        31.34309        -1.07499
H         32.15958        31.76941        -1.38275
O         18.04532        31.84565         2.59740
H         18.84504        32.31136         2.92414
O         21.91814        54.98526        -3.08512
H         21.85836        54.03371        -3.31768
O         28.21850        39.87836        -2.85070
H         28.33171        38.92135        -3.03966
O         19.69639        52.32644         1.13676
H         19.67111        53.26250         1.42903
O         21.16056        31.39899        -0.79842
H         20.60165        31.91988        -1.41516
O         30.20171        31.81407        -0.68741
H         30.03520        30.90361        -1.01548
O         33.74014        24.91082         3.70259
H         33.31781        25.72033         4.08189
O         26.97931        16.83159        -1.08795
H         27.74874        17.35140        -1.40280
O         29.21680        25.00094        -0.56671
H         28.78218        25.79526        -0.95842
O         21.46957        39.40428        -2.47312
H         22.17155        38.89801        -2.93906
O         21.71860        35.86777         2.18061
H         22.43627        35.44750         2.70286
O         27.94808         8.06596        -2.24362
H         27.53504         8.11689        -1.35702
O         24.13598        42.14280        -2.88402
H         24.26527        41.21088        -3.16512
O         14.63721        37.57080         2.99915
H         15.20779        38.22929         3.46439
H          4.69696        31.34378         0.80724
H          4.78438        33.78152         0.99294
H          7.25139        26.91170        -0.04614
H          5.86739        29.14355         0.76144
H          6.03761        35.91444         1.13792
H          7.32778        38.10766         1.09804
H         10.01015        23.07738        -1.15671
H          8.62139        24.86426        -0.51320
H          8.59060        40.20631         1.11141
H          9.87686        42.32189         0.73018
H         12.37045        18.52635        -1.00706
H         11.13708        20.49267        -1.08870
H         11.15545        44.36235         0.38247
H         12.56678        46.55477         0.84091
H         15.10578        14.64757        -2.26110
H         13.65676        16.55737        -1.46244
H         13.62606        48.64786        -0.05702
H         14.88455        50.77223        -0.20749
H         18.25406        11.23683        -4.46171
H         16.46872        13.23000        -3.42660
H         16.10153        52.87447        -0.58918
H         17.36473        55.00010        -0.89067
H         20.37427         6.94815        -5.43157
H         19.03126         8.69944        -4.47185
H         18.63486        57.09011        -1.15352
H         19.84485        59.17936        -1.51101
H         23.90551         3.88228        -6.46124
H         21.71608         5.05096        -6.26611
H         23.34611        62.49889        -2.19120
H         21.17253        61.35629        -1.95308
H         25.97312         4.89938        -5.52649
H         27.06749         6.66231        -4.20167
H         26.70816        59.10201        -2.06335
H         25.48221        61.27410        -2.07389
H         28.20910         9.36269        -3.82682
H         29.33581        10.34166        -1.71429
H         29.14602        54.80264        -1.74557
H         27.92354        56.96277        -1.88459
H         29.74936        11.88047         0.86732
H         31.71211        14.09918         0.49323
H         31.74121        50.57424        -1.14766
H         30.36294        52.73354        -1.46362
H         32.92171        16.19482         1.12522
H         34.11089        18.31235         1.86428
H         34.08333        46.27688        -1.28009
H         32.88961        48.42238        -1.46346
H         35.25889        20.44652         2.44014
H         36.47288        22.60559         2.40541
H         36.50418        42.07408        -0.26690
H         35.25852        44.22863        -0.72187
H         37.63093        24.68747         1.89823
H         38.93366        27.02704         2.17688
H         38.88800        37.90831         0.44117
H         37.73792        39.97788        -0.30464
H         40.15286        28.98676         1.40978
H         41.41486        31.07488         1.07242
H         41.46956        33.50339         0.60306
H         40.28232        35.64285         0.44415
