         430
 CSIRO Nanostructure Databank - Neutral Graphene Oxide Data Set
C         28.03191        27.48428        -1.11671
C         27.98333        28.86676        -0.78750
C         26.75118        29.60387        -0.87471
C         27.84790        31.68414        -0.20058
C         26.70349        30.95833        -0.61831
C         27.84967        33.09397        -0.02577
C         26.64415        33.85519        -0.13084
C         27.85966        35.94876         0.19268
C         26.64677        35.21835         0.00655
C         27.86083        37.38128         0.20813
C         26.64844        38.12747         0.13938
C         27.86332        40.24711         0.12749
C         26.64897        39.49948         0.09440
C         27.86047        41.68086         0.03202
C         26.65577        42.42636        -0.15010
C         27.89687        44.52407        -0.17983
C         26.67090        43.79578        -0.24740
C         27.91487        45.94061        -0.31984
C         30.41318        27.38335        -0.58548
C         29.21167        26.76702        -0.99560
C         30.39608        28.80020        -0.30603
C         29.16093        29.51881        -0.38588
C         30.34417        31.70420         0.11228
C         29.07339        30.90258         0.20367
C         30.31947        33.05919         0.30093
C         29.07033        33.80090         0.25469
C         30.33715        35.95310         0.37570
C         29.08259        35.21842         0.31261
C         30.32757        37.38630         0.32300
C         29.09524        38.10117         0.26850
C         30.32615        40.25852         0.35348
C         29.09167        39.53550         0.24482
C         30.30119        41.67365         0.34235
C         29.09477        42.38925         0.12428
C         30.34708        44.56049         0.04063
C         29.11400        43.82538         0.01202
C         30.34601        45.97402        -0.11501
C         29.09943        46.64080        -0.28819
C         32.93499        24.56668        -0.67634
C         31.74841        25.26893        -0.81818
C         32.84929        27.29827        -0.07519
C         31.66264        26.64547        -0.49679
C         32.83643        28.74676         0.36319
C         31.58006        29.48969         0.01371
C         32.81886        31.59900         0.63361
C         31.64096        30.98711        -0.17035
C         32.84931        33.09613         0.49735
C         31.55462        33.80417         0.78418
C         32.80134        35.95728         0.35782
C         31.56128        35.26638         0.43909
C         32.79966        37.38764         0.31876
C         31.56645        38.10451         0.34844
C         32.82122        40.21403         0.46169
C         31.57093        39.53124         0.40325
C         32.85143        41.68540         0.64656
C         31.53310        42.44367         0.58207
C         32.81238        44.55189         0.16669
C         31.58115        43.87379         0.24327
C         32.82772        45.97500         0.00921
C         31.60107        46.69008        -0.07932
C         32.84820        48.78855        -0.06865
C         31.64782        48.10769        -0.14091
C         35.39163        23.03205        -0.02385
C         35.36278        24.44245        -0.04440
C         34.11768        25.20120        -0.23621
C         35.30354        27.31243         0.51175
C         34.06073        26.59484         0.01994
C         35.34916        28.78132         0.16098
C         34.08008        29.48972        -0.17343
C         35.31015        31.64724         0.25436
C         34.10697        30.92935         0.25903
C         35.29887        33.08744         0.28177
C         34.04146        33.79551         0.35631
C         35.27367        35.95586         0.23250
C         34.04107        35.24681         0.32429
C         35.27727        37.37957         0.23436
C         34.03951        38.09227         0.30299
C         35.31655        40.26590         0.59806
C         34.02690        39.51133         0.38907
C         35.25578        41.64142        -0.02403
C         34.05485        42.43363         0.26191
C         35.31702        44.52678        -0.09409
C         34.06130        43.81345         0.13668
C         35.31479        45.96680        -0.07457
C         34.08253        46.67917        -0.01208
C         35.33984        48.81974         0.13566
C         34.08242        48.10326         0.00975
C         35.35890        50.20764         0.39717
C         37.81723        23.03186         0.25296
C         36.59037        22.34495         0.12583
C         37.80913        24.44649         0.24608
C         36.58942        25.12986         0.12711
C         37.84460        27.37485         0.08699
C         36.55669        26.61122         0.03042
C         37.79889        28.81234         0.31629
C         36.56385        29.49474         0.23511
C         37.78043        31.66405         0.13607
C         36.56062        30.94692         0.19600
C         37.75723        33.09108         0.05623
C         36.51852        33.80261         0.15477
C         37.74767        35.93460        -0.01009
C         36.51647        35.23412         0.13322
C         37.75005        37.38748         0.01196
C         36.52498        38.10490         0.14304
C         37.78079        40.23235         0.09610
C         36.55746        39.51532         0.19182
C         37.81568        41.66628         0.00161
C         36.54809        42.37538        -0.25837
C         37.80255        44.52874        -0.59510
C         36.51686        43.83777        -0.24127
C         37.77546        45.99641        -0.28966
C         36.57299        46.67640        -0.12064
C         37.80786        48.83061         0.17672
C         36.56936        48.11976         0.05033
C         37.78745        50.22944         0.44680
C         36.56042        50.88672         0.57213
C         40.43587        20.36665         1.00630
C         39.18028        21.04646         0.87615
C         40.31518        23.00533        -0.18408
C         39.08844        22.32023         0.37973
C         40.33707        24.49608         0.05992
C         39.09376        25.18203         0.57277
C         40.31123        27.34733         0.16262
C         39.10587        26.64646         0.22673
C         40.32052        28.79147         0.11001
C         39.08471        29.54133         0.56558
C         40.22492        31.67218        -0.12182
C         39.03507        30.97771         0.11207
C         40.22177        33.08658        -0.21673
C         38.98105        33.80246        -0.10047
C         40.21621        35.96001        -0.51186
C         38.95682        35.21586        -0.15683
C         40.22029        37.32879         0.12659
C         38.96625        38.10104         0.05074
C         40.26562        40.23456         0.16553
C         39.01152        39.50913         0.10738
C         40.26334        41.65898         0.21664
C         39.01551        42.38846         0.08550
C         40.22870        44.54837         0.13101
C         39.04006        43.82418        -0.05716
C         40.29065        45.95260        -0.03818
C         39.06935        46.73062        -0.49275
C         40.28360        48.83400         0.13241
C         39.04860        48.13841         0.04085
C         40.30372        50.24401         0.25813
C         39.06980        50.98751         0.70191
C         40.21327        53.07020        -0.05102
C         39.06215        52.41609         0.21095
C         42.91555        20.35725         0.90952
C         41.62712        21.00499         0.74013
C         42.78396        23.07229         0.09769
C         41.62483        22.37660         0.25338
C         42.73804        24.44120        -0.56351
C         41.50278        25.19077        -0.11044
C         42.76276        27.33562        -0.14900
C         41.55109        26.63332         0.00384
C         42.75862        28.76752        -0.17252
C         41.50446        29.46943        -0.10772
C         42.75249        31.67248        -0.10841
C         41.49257        30.93041        -0.48486
C         42.71662        33.05661        -0.09097
C         41.47749        33.80432        -0.24754
C         42.73288        35.95129        -0.28795
C         41.49705        35.19800        -0.26502
C         42.72070        37.34489        -0.23230
C         41.51249        38.07197         0.17181
C         42.72882        40.24825         0.14040
C         41.50325        39.54598         0.14826
C         42.70553        41.65729         0.33935
C         41.48819        42.35671         0.34729
C         42.76782        44.54849         0.37168
C         41.45684        43.83409         0.67209
C         42.74261        45.97157         0.26187
C         41.52369        46.65715         0.07603
C         42.72635        48.82721        -0.09980
C         41.52826        48.11864         0.00280
C         42.74278        50.24993        -0.10463
C         41.50949        50.95640         0.06446
C         42.69119        53.06964        -0.25221
C         41.49338        52.38652        -0.04526
C         44.07674        21.02828         0.75203
C         45.19580        22.98674        -0.54683
C         44.12729        22.51153         0.50445
C         45.24319        24.50274        -0.44330
C         44.03237        25.20566        -0.39613
C         45.23756        27.34222        -0.26654
C         44.01374        26.61904        -0.27288
C         45.22676        28.77591        -0.20570
C         43.98522        29.48851        -0.18227
C         45.22484        31.60503         0.00588
C         43.99467        30.92929        -0.07197
C         45.25846        33.05945         0.21806
C         43.94821        33.82611         0.15201
C         45.21773        35.91096        -0.32790
C         44.00149        35.25327        -0.22586
C         45.23999        37.35313        -0.63916
C         43.91967        38.12420        -0.51136
C         45.20070        40.19717        -0.13560
C         43.98019        39.54795        -0.12796
C         45.26827        41.62611         0.25021
C         43.98329        42.37676         0.52332
C         45.26553        44.56430         0.49300
C         43.96862        43.85545         0.43527
C         45.29344        46.01656         0.28647
C         44.00586        46.78166         0.48590
C         45.26207        48.85159        -0.15578
C         43.99496        48.05341        -0.35517
C         45.24303        50.25992        -0.20353
C         43.96688        50.98213        -0.22789
C         43.91159        52.37960        -0.30576
C         47.67974        23.04112        -0.21803
C         46.53162        22.34376        -0.32287
C         47.72350        24.49111        -0.26792
C         46.47869        25.20240        -0.34195
C         47.71336        27.34533        -0.27039
C         46.47773        26.63171        -0.29864
C         47.70448        28.77158        -0.22713
C         46.46232        29.48125        -0.18848
C         47.69593        31.62574        -0.12045
C         46.46607        30.90936        -0.11124
C         47.70889        33.06744        -0.11657
C         46.50511        33.79619        -0.02844
C         47.71152        35.90899        -0.26409
C         46.48915        35.21372        -0.16849
C         47.75351        37.35708        -0.70084
C         46.47986        38.12035        -0.46546
C         47.72611        40.24644        -0.30325
C         46.46206        39.49754        -0.34565
C         47.75415        41.63027        -0.22771
C         46.45059        42.39581        -0.30886
C         47.76659        44.55662        -0.14490
C         46.56088        43.80655         0.23306
C         47.74361        45.96960        -0.10174
C         46.47940        46.68366         0.05796
C         47.70930        48.85059        -0.05521
C         46.48145        48.14405        -0.05751
C         47.67710        50.26155        -0.09967
C         46.47656        50.94944        -0.15261
C         50.21261        24.51620        -0.15774
C         48.94631        25.19440        -0.23401
C         50.18538        27.34436        -0.28464
C         48.95803        26.63449        -0.27054
C         50.17901        28.78304        -0.27202
C         48.93417        29.48996        -0.21422
C         50.16782        31.63116        -0.17728
C         48.93269        30.91717        -0.17636
C         50.17987        33.06044        -0.17688
C         48.94515        33.77307        -0.17238
C         50.19188        35.89025        -0.16363
C         48.94256        35.20028        -0.19072
C         50.22753        37.37598         0.09238
C         48.96218        38.11788        -0.24280
C         50.25070        40.22049        -0.27508
C         48.97345        39.49352        -0.26644
C         50.23290        41.67864        -0.33474
C         48.99366        42.37776        -0.25779
C         50.22259        44.51412        -0.40079
C         48.99202        43.81102        -0.31189
C         50.22401        46.00269        -0.63217
C         48.95070        46.70486        -0.22606
C         50.20735        48.77654         0.04391
C         48.96695        48.11414        -0.08341
C         51.39500        25.19516        -0.15730
C         52.66390        27.31756        -0.28887
C         51.44501        26.63077        -0.25890
C         52.68800        28.79956        -0.55540
C         51.39169        29.50743        -0.28113
C         52.64592        31.64494        -0.11959
C         51.40331        30.92129        -0.20985
C         52.65085        33.04924        -0.06219
C         51.41344        33.76713        -0.16457
C         52.66799        35.92893        -0.03826
C         51.40438        35.19621        -0.16566
C         52.68757        37.30065        -0.14051
C         51.42821        38.02087        -0.57369
C         52.71916        40.17902        -0.60732
C         51.43354        39.51383        -0.33194
C         52.70049        41.68246        -0.76895
C         51.44188        42.40084        -0.47363
C         52.71681        44.54818        -0.32856
C         51.44941        43.82077        -0.43017
C         52.71418        45.95631        -0.10094
C         51.47536        46.69357        -0.14361
C         51.41556        48.06527         0.08942
C         55.09373        27.33192        -0.01019
C         53.95094        26.66213        -0.29925
C         55.04753        28.73049         0.54006
C         53.87361        29.51864         0.02650
C         55.11470        31.62543         0.29694
C         53.88050        30.90162         0.06697
C         55.11336        33.03300         0.33444
C         53.88676        33.77599         0.15993
C         55.12288        35.91213         0.39492
C         53.89245        35.18107         0.20731
C         55.14296        37.32159         0.37577
C         53.85103        38.10032         0.36751
C         55.17684        40.16553        -0.14813
C         53.97304        39.49404        -0.22726
C         55.28187        41.63301        -0.40947
C         53.99801        42.42064        -0.67319
C         55.15622        44.51214         0.00665
C         53.94728        43.85094        -0.31883
C         55.13395        45.90648         0.23881
C         53.94740        46.60966         0.16468
C         56.33286        29.49623         0.39842
C         56.33905        30.84860         0.35288
C         56.32084        33.78181         0.54847
C         56.32722        35.14671         0.56583
C         56.34930        38.07464         0.41894
C         56.36339        39.43513         0.22306
C         56.40674        42.40002         0.16056
C         56.36192        43.75252         0.25201
O         37.08992        27.07188        -1.23399
O         32.18927        42.13829         1.86877
O         35.76960        41.75131        -1.37976
O         52.66757        40.81499        -1.95010
O         54.92008        42.08755        -1.75425
O         40.90094        37.46544         1.40187
O         44.57428        33.51870         1.44542
O         46.13034        44.07118         1.59711
O         44.49269        37.78606        -1.82406
O         44.84639        41.86311         1.61626
O         53.49005        38.33804         1.79859
H         52.52350        38.16402         1.89560
O         50.46441        37.54829         1.53252
H         49.71809        37.13505         2.01621
O         39.17508        25.11836         2.05243
H         39.90303        25.71329         2.33340
O         41.32532        43.91495         2.13371
H         42.05180        43.38500         2.52675
O         51.29793        37.86832        -2.01127
H         51.92774        38.48559        -2.44223
O         42.59143        24.20621        -2.00622
H         41.71143        23.76062        -2.13504
O         43.97521        47.62355        -1.74727
H         43.89458        48.42125        -2.31053
O         35.31441        27.21217         1.96774
H         34.51465        27.70145         2.28380
O         43.97459        47.19882         1.88112
H         44.04872        46.39633         2.43959
O         40.23014        22.83000        -1.65123
H         40.20514        21.86507        -1.82741
O         39.20516        46.87436        -1.96187
H         38.87139        46.03283        -2.35935
O         35.43479        40.51405         2.03687
H         35.38668        39.65104         2.49926
O         39.22042        29.60302         2.04343
H         39.94789        30.22985         2.24577
O         41.49368        30.90360        -1.96172
H         41.51772        31.83417        -2.27062
O         44.52657        23.13943         1.75888
H         43.90191        22.84377         2.45390
O         46.14388        42.54229        -1.73214
H         46.93716        42.90559        -2.18061
O         40.15148        36.23011        -1.95693
H         40.07524        35.36927        -2.41961
O         50.26897        46.14443        -2.11763
H         50.32129        47.10598        -2.30792
O         32.51477        31.30363         2.05252
H         33.36811        31.27531         2.53616
O         31.90814        31.23871        -1.58091
H         32.62142        30.60856        -1.86857
O         31.40083        33.77412         2.25694
H         31.61376        32.84461         2.52818
O         39.17350        51.07755         2.17557
H         40.03211        51.50681         2.37845
O         37.90758        44.41996        -2.08820
H         37.59826        43.52096        -2.33807
O         28.89644        30.65732         1.66619
H         28.79050        31.53713         2.08967
O         52.86985        28.90303        -2.03135
H         52.07917        28.49681        -2.44721
O         47.88964        37.26677        -2.16876
H         47.97971        38.17903        -2.51806
O         44.76330        22.57333        -1.85835
H         44.00218        23.15026        -2.13449
O         32.98390        28.74461         1.82866
H         32.09106        28.63489         2.22063
O         33.92330        29.43352        -1.65655
H         34.78374        29.69149        -2.05276
O         54.82691        28.56919         1.99786
H         54.85203        29.46690         2.39304
H         27.11084        26.97621        -1.43640
H         25.84560        29.07673        -1.20741
H         25.75460        31.48656        -0.78813
H         25.68852        33.34360        -0.30527
H         25.69031        35.75089        -0.07036
H         25.68186        37.60806         0.11938
H         25.68504        40.02150         0.03649
H         25.69287        41.90361        -0.22080
H         25.73204        44.34952        -0.39253
H         26.96361        46.47284        -0.46462
H         29.19848        25.69421        -1.23061
H         29.07171        47.73175        -0.40958
H         32.94590        23.49590        -0.92192
H         30.86019        24.72833        -1.17122
H         32.82824        49.88598        -0.09502
H         30.71944        48.68827        -0.21905
H         34.46052        22.45761        -0.12478
H         34.42010        50.76568         0.50593
H         36.58177        21.24557         0.12511
H         36.52972        51.95589         0.82135
H         40.44189        19.33153         1.37642
H         38.27570        20.52895         1.22787
H         40.19961        54.13777        -0.31897
H         38.11098        52.96665         0.18385
H         42.92338        19.28715         1.16811
H         42.68138        54.16372        -0.36080
H         45.02973        20.50392         0.91664
H         44.83255        52.96455        -0.42972
H         48.61961        22.48479        -0.09878
H         46.56929        21.24433        -0.32847
H         48.61176        50.83773        -0.09749
H         46.50007        52.04701        -0.16905
H         50.24038        23.42056        -0.09766
H         50.24011        49.86105         0.20859
H         52.33440        24.63010        -0.09213
H         52.32684        48.62832         0.33321
H         56.06426        26.81458        -0.04292
H         54.00846        25.59422        -0.56085
H         56.07097        46.42812         0.48068
H         53.96861        47.69382         0.33531
H         57.28095        28.93872         0.43536
H         57.30457        31.37278         0.31948
H         57.26787        33.24955         0.70821
H         57.27996        35.66485         0.73741
H         57.30983        37.56417         0.57419
H         57.32811        39.95798         0.25330
H         57.30959        41.87151         0.49629
H         57.23762        44.30144         0.62974
