         486
 CSIRO Nanostructure Databank - Neutral Graphene Oxide Data Set
C         37.58976        49.98845        -0.47114
C         36.44491        50.71108        -0.79426
C         37.57399        52.76738        -0.19520
C         36.44005        52.10381        -0.67448
C         40.08143        48.54453         0.36888
C         39.99350        49.91996         0.22162
C         38.75385        50.64490        -0.01397
C         39.91189        52.72149         0.85233
C         38.73348        52.05969         0.14043
C         39.91565        54.22386         0.82073
C         42.54742        48.51656         0.50629
C         41.31374        47.84737         0.45139
C         42.48491        49.99148         0.56385
C         41.26827        50.69389         0.00635
C         42.38870        52.89908         0.32994
C         41.23024        52.14446         0.40919
C         42.34260        54.34018         0.45756
C         41.05639        54.94783         0.68375
C         45.14878        45.84036         0.90308
C         43.95371        46.47123         0.79435
C         45.03145        48.66879         0.41234
C         43.82481        47.89659         0.61514
C         44.99227        50.05187         0.24678
C         43.75910        50.79149         0.48799
C         44.86110        52.95134         0.05595
C         43.68958        52.24188         0.18093
C         44.82646        54.45270        -0.12375
C         43.53460        55.10853         0.35061
C         44.80119        57.22408         0.56252
C         43.57845        56.48508         0.56828
C         47.64540        44.39219         0.26086
C         47.60944        45.80027         0.26361
C         46.45655        46.58158         0.87786
C         47.45654        48.67851        -0.03277
C         46.31643        47.98142         0.30828
C         47.44618        50.10999        -0.20782
C         46.12818        50.80601        -0.39208
C         47.33668        52.94271         0.15633
C         46.14303        52.27160        -0.02194
C         47.30532        54.34750         0.64839
C         46.02923        55.11699         0.52307
C         47.33656        57.36180         0.67668
C         46.02384        56.60474         0.53566
C         47.35373        58.68218        -0.06956
C         49.97096        44.37536        -0.46707
C         48.81285        43.69729        -0.05783
C         49.88266        45.79004        -0.63148
C         48.73935        46.50302        -0.17391
C         49.76324        48.73895        -0.94384
C         48.81349        48.00262         0.02439
C         49.89445        50.16009        -0.43101
C         48.62766        50.83832        -0.19741
C         49.82051        52.95281         0.22833
C         48.61797        52.27099         0.04289
C         49.85352        54.37811         0.42378
C         48.60399        55.12713         0.86219
C         49.81702        57.26423         0.21196
C         48.50978        56.49573         0.15147
C         49.80870        58.65317        -0.01437
C         48.52782        59.29400        -0.31826
C         52.51415        41.61835        -0.97741
C         51.31168        42.31928        -0.94614
C         52.48812        44.30734        -0.21548
C         51.26350        43.67082        -0.55704
C         52.56878        45.71595         0.29756
C         50.93602        46.53448        -1.25837
C         52.42553        48.65530        -0.79214
C         51.09036        47.98999        -1.11823
C         52.37504        50.15150        -0.58624
C         51.07947        50.80586        -0.26775
C         52.37070        52.95046         0.17219
C         51.10313        52.16380         0.40680
C         52.31669        54.43044        -0.08743
C         51.02828        55.09672         0.32165
C         52.26159        57.26197         0.27629
C         51.03108        56.55092         0.31784
C         52.25193        58.66359         0.13930
C         51.03827        59.37474        -0.02427
C         52.23162        61.53014        -0.13670
C         51.07474        60.82305        -0.10589
C         55.04609        40.08977        -0.67351
C         55.00645        41.50581        -0.66793
C         53.73368        42.24365        -0.65294
C         54.99932        44.33767         0.03860
C         53.70745        43.61935        -0.31497
C         54.94282        45.83630        -0.20904
C         53.72822        46.52500        -0.19150
C         54.88219        48.69706        -0.25611
C         53.65710        47.94411        -0.38620
C         54.89322        50.13219        -0.13027
C         53.63854        50.88122        -0.28270
C         54.83220        53.00700         0.29387
C         53.58424        52.30782         0.12884
C         54.75373        54.40378         0.85521
C         53.54152        55.17348         0.39695
C         54.75719        57.30249         0.65778
C         53.52674        56.54118         0.43006
C         54.75042        58.67151         0.55044
C         53.54657        59.37021         0.04155
C         54.79955        61.63749         0.03528
C         53.54585        60.86374        -0.18293
C         54.92344        62.95962        -0.28272
C         57.48819        40.10873        -0.78149
C         56.25180        39.41617        -0.72899
C         57.47194        41.53373        -0.75507
C         56.22149        42.20996        -0.68980
C         57.41283        44.47851        -0.90701
C         56.16405        43.69204        -0.70462
C         57.40486        45.88990        -0.45510
C         56.17890        46.56741        -0.29450
C         57.34657        48.76389         0.01810
C         56.11051        47.99932        -0.19588
C         57.32037        50.22339         0.01390
C         56.08310        50.88519         0.03101
C         57.29060        53.05452         0.47288
C         56.05071        52.33870         0.23155
C         57.26986        54.47331         0.70618
C         56.03749        55.18462         0.74749
C         57.24477        57.31418         0.95072
C         56.01824        56.58376         0.82699
C         57.25359        58.74509         1.02313
C         55.95583        59.45987         0.87889
C         57.35940        61.51780         0.29965
C         55.98040        60.93892         0.60312
C         57.35227        63.03165         0.17266
C         56.16979        63.66243        -0.14294
C         60.03121        37.35038        -1.17774
C         58.82088        38.00549        -1.06673
C         59.96856        40.14195        -0.79084
C         58.75157        39.40975        -0.87513
C         59.92837        41.58780        -0.76903
C         58.71860        42.26223        -0.81453
C         59.88269        44.47028        -0.40306
C         58.74095        43.75154        -1.15654
C         59.95247        45.93887        -0.79565
C         58.64721        46.65283        -0.63472
C         59.94418        48.78968        -0.22085
C         58.67864        48.05555        -0.15764
C         59.91741        50.25342        -0.12631
C         58.56351        50.98506        -0.05760
C         59.75863        53.05900         0.65412
C         58.54160        52.39341         0.39049
C         59.73415        54.47457         0.91392
C         58.49139        55.18651         0.86095
C         59.69347        57.32509         1.24629
C         58.47758        56.60619         1.03105
C         59.68609        58.75132         1.36701
C         58.43455        59.45261         1.23404
C         59.76386        61.58181         1.04528
C         58.40647        60.97647         1.28687
C         59.82600        63.07913         0.86714
C         58.62773        63.71562         0.18473
C         60.07922        65.62409        -0.40273
C         58.79818        64.99944        -0.29435
C         62.63856        35.99825        -1.38246
C         62.55523        37.36080        -1.08370
C         61.25949        38.04754        -1.02883
C         62.44668        40.14231        -0.43264
C         61.20831        39.43371        -0.81377
C         62.41841        41.63082        -0.36160
C         61.23288        42.34672        -0.97040
C         62.38901        44.46338        -0.19775
C         61.20834        43.78512        -0.52192
C         62.41881        45.90436        -0.10872
C         61.28732        46.68620        -0.73574
C         62.34838        48.81678         0.08056
C         61.15800        48.11117        -0.21509
C         62.31429        50.18989         0.45873
C         61.11427        50.93706         0.36030
C         62.15085        52.97410         1.23091
C         61.02526        52.33539         0.71322
C         62.11809        54.40258         1.56991
C         60.91494        55.17813         1.22837
C         62.13554        57.32261         1.54662
C         60.92455        56.60443         1.35619
C         62.13426        58.72933         1.67497
C         60.91090        59.44083         1.59306
C         62.24283        61.61202         1.58969
C         60.88924        60.93663         1.82280
C         62.34658        62.93593         0.88947
C         61.12867        63.45331         0.14764
C         62.56741        65.39661        -0.57307
C         61.24987        64.92080        -0.20461
C         62.77706        66.67174        -1.14229
C         65.06845        36.02577        -1.22575
C         63.87505        35.34174        -1.44574
C         65.03744        37.41772        -0.96031
C         63.77623        38.08735        -0.86573
C         64.94929        40.20783        -0.37967
C         63.75177        39.47248        -0.54993
C         64.92184        41.63641        -0.15632
C         63.69943        42.36524        -0.22850
C         64.81843        44.43854         0.58528
C         63.63673        43.74605        -0.03720
C         64.83839        45.93434         0.39593
C         63.62319        46.60049         0.09933
C         64.87960        48.80759         0.47980
C         63.62581        48.08223         0.00617
C         64.71648        50.14170         1.06955
C         63.51878        50.81380         0.98090
C         64.69882        52.97371         1.58552
C         63.40093        52.22356         1.44276
C         64.70598        54.44769         1.63020
C         63.41099        55.15305         1.79701
C         64.62580        57.32541         1.99347
C         63.45056        56.61095         1.38319
C         64.64090        58.70766         2.08218
C         63.40890        59.43305         1.83420
C         64.74821        61.46636         1.58319
C         63.47657        60.81284         1.69861
C         64.83782        62.67202         0.79804
C         63.65787        63.34669         0.34022
C         64.96035        64.90497        -1.07691
C         63.70470        64.52303        -0.42580
C         65.14066        66.24471        -1.62246
C         64.02401        67.09859        -1.60844
C         67.54724        33.44682        -0.13162
C         66.37583        33.99702        -0.51653
C         67.59340        36.09449        -1.00885
C         66.37037        35.27178        -1.32880
C         67.54112        37.46599        -0.83900
C         66.25548        38.15956        -0.76360
C         67.46377        40.24009        -0.03891
C         66.20571        39.52410        -0.47353
C         67.40764        41.73564        -0.19267
C         66.15273        42.38010        -0.05313
C         67.31306        44.49077         0.36909
C         66.12395        43.77539         0.22737
C         67.27656        45.84057         1.04895
C         66.04291        46.63206         0.67134
C         67.28531        48.72315         1.19249
C         66.07443        48.01963         0.81840
C         67.25211        50.07816         1.45245
C         65.93979        50.78616         1.70787
C         67.24810        52.99426         1.33962
C         65.95042        52.22464         1.13101
C         67.19063        54.50901         1.59091
C         65.86763        55.13971         1.77238
C         67.08048        57.23753         2.48614
C         65.78680        56.48816         2.44389
C         67.01370        58.63225         2.74876
C         65.85677        59.43518         2.43910
C         67.13956        61.63788         2.09105
C         65.92420        60.84393         2.11587
C         67.28059        62.71750         1.13997
C         66.11966        63.15809         0.44280
C         67.54747        64.82264        -0.79888
C         66.26898        64.14810        -0.61072
C         67.62531        65.93385        -1.67734
C         66.43920        66.62537        -2.11144
C         67.83857        68.15142        -3.40582
C         66.59471        67.74524        -2.96581
C         69.99341        32.46238         1.11567
C         70.03152        33.31694        -0.00694
C         68.83228        34.06837        -0.41195
C         70.07058        36.15198        -1.12921
C         68.85240        35.37862        -0.89940
C         70.02746        37.57409        -1.01028
C         68.77424        38.23713        -0.75269
C         69.92982        40.40787        -0.63082
C         68.73768        39.61653        -0.54611
C         69.87438        41.83187        -0.48636
C         68.59024        42.48885        -0.25327
C         69.76248        44.66368         0.06615
C         68.54533        43.88988         0.01732
C         69.78460        45.94503         0.59555
C         68.56181        46.63046         0.92664
C         69.79664        48.77318         1.18532
C         68.55447        48.00099         1.14141
C         69.77014        50.15705         1.47455
C         68.48681        50.79919         1.94349
C         69.65567        53.03624         1.85161
C         68.47882        52.29465         1.67158
C         69.61648        54.47422         2.08911
C         68.39284        55.16512         2.11667
C         69.54442        57.24691         2.77851
C         68.31530        56.54930         2.49878
C         69.46137        58.60883         3.20790
C         68.21009        59.18147         3.28964
C         69.60445        61.59713         2.44287
C         68.29345        61.29685         2.83866
C         69.74633        62.92280         1.72698
C         68.54912        63.28583         0.86318
C         69.97916        64.83864        -0.47473
C         68.69836        64.33075        -0.10904
C         70.09549        65.81165        -1.50423
C         68.91574        66.42602        -2.05701
C         70.33636        67.94743        -3.41137
C         69.02933        67.51235        -2.96417
C         70.49100        69.02375        -4.31870
C         72.29262        31.78307         0.75483
C         71.10755        31.71377         1.49366
C         72.36826        32.63013        -0.35263
C         71.25062        33.38939        -0.71339
C         72.44997        36.31520        -1.70567
C         71.28129        35.55811        -1.52695
C         72.42512        37.68343        -1.47912
C         71.22094        38.34154        -1.13371
C         72.33567        40.57562        -1.00594
C         71.17273        39.77658        -0.93008
C         72.26934        41.95308        -0.86460
C         71.04245        42.60101        -0.62823
C         72.20539        44.87912        -0.48807
C         70.93009        44.11258        -0.71856
C         72.26291        46.03200         0.18555
C         71.10086        46.60428         0.95546
C         72.21262        48.89271         0.99524
C         71.03924        48.12536         0.96819
C         72.17815        50.26337         1.23944
C         70.96152        50.91660         1.52744
C         72.07916        53.07264         2.15215
C         70.91855        52.34209         1.87078
C         72.04198        54.44152         2.42976
C         70.83699        55.17517         2.41643
C         71.96768        57.34353         3.09526
C         70.78807        56.57802         2.72863
C         71.93023        58.64097         3.47862
C         70.66924        59.46279         3.57875
C         71.92245        61.06774         2.05838
C         70.73559        60.74969         2.70097
C         72.07376        62.23095         1.23527
C         71.06002        63.11914         1.02694
C         72.45987        64.54410        -0.54944
C         71.22120        64.43432         0.29246
C         72.52929        65.43462        -1.56747
C         71.38126        66.19632        -1.99863
C         72.77701        67.69526        -3.41983
C         71.50493        67.26348        -2.94858
C         72.89404        68.74796        -4.30771
C         71.74266        69.41913        -4.76152
O         51.83479        46.14263         1.18588
O         43.07259        50.51653         1.77856
O         46.40469        54.50189         1.81250
O         59.22453        46.36394        -1.98104
O         53.09917        50.80819        -1.68873
O         51.95038        48.43028        -2.21950
O         62.32298        62.87838         2.34641
O         56.44684        44.25760        -2.02912
O         55.72667        60.45576         1.95652
O         59.28689        50.83944        -1.34176
O         64.00029        52.46748         2.77842
O         62.62386        54.78711         2.94006
O         64.54718        48.68534        -0.95352
O         71.34779        34.19211        -1.86672
O         62.18233        40.86918         0.86044
O         58.10407        48.19942         1.19007
O         68.09947        60.42891         3.92638
O         67.41772        53.96811         0.23896
O         53.73555        59.93576        -1.32433
O         65.56786        63.83594        -1.85393
O         71.33777        46.23571         2.35661
H         70.54298        46.49900         2.86852
O         63.71410        56.54735        -0.06987
H         63.75719        57.46812        -0.40549
O         58.03399        61.43319         2.61888
H         58.76591        61.14074         3.22254
O         70.56535        59.89636         4.95324
H         69.70076        60.35989         5.04393
O         39.75495        52.33223         2.26593
H         38.90277        52.70211         2.57900
O         45.86452        50.76800        -1.84837
H         45.99819        49.84244        -2.14535
O         48.76947        55.34103         2.28949
H         48.00441        54.90363         2.73498
O         54.53820        54.20029         2.30516
H         54.49889        55.08616         2.72516
O         61.09880        62.72851        -1.11480
H         61.84120        63.04916        -1.66986
O         68.50621        50.65842         3.40834
H         67.56372        50.69962         3.71021
O         41.48423        50.68395        -1.45617
H         40.65254        50.98728        -1.87908
O         65.51017        56.13795         3.85803
H         65.36120        56.97651         4.34547
O         59.83822        63.65482         2.20963
H         59.01699        63.33276         2.64948
O         49.12708        48.74941        -2.23568
H         49.71295        49.24107        -2.85087
O         57.74329        61.00064        -1.00291
H         57.19457        61.44122        -1.68497
O         46.88472        46.78834         2.27919
H         46.14306        47.23332         2.74384
O         51.14455        51.85143         1.85125
H         50.33265        51.34590         2.07172
O         44.93556        54.72654        -1.55142
H         44.28230        54.16526        -2.01887
O         67.50921        40.04081         1.43168
H         67.58040        39.07500         1.59029
O         61.47039        42.36405        -2.41300
H         60.73190        42.88849        -2.81176
O         55.26423        44.11168         1.45213
H         54.59149        44.59921         1.97272
O         66.49140        34.85860        -2.73275
H         67.34544        34.38417        -2.82176
O         49.34901        48.18575         1.35947
H         48.74153        47.71268         1.97813
O         59.03893        43.81336        -2.57303
H         58.17655        43.91752        -3.03831
O         51.68989        45.97504        -2.18923
H         52.21853        46.72438        -2.59499
O         67.14420        45.54659         2.48080
H         66.27963        45.07398         2.59464
O         48.24749        56.18426        -1.23719
H         48.17067        57.02891        -1.72964
O         65.83662        50.76351         3.15352
H         65.01195        51.24796         3.41870
O         70.57615        44.35737        -2.12742
H         70.43953        45.32240        -2.23526
O         52.36489        54.53733        -1.56050
H         52.29468        55.48933        -1.78848
O         71.37766        65.45914         1.36697
H         71.42535        66.33299         0.92202
O         61.72268        46.85026        -2.11735
H         60.90787        46.98752        -2.65609
O         65.80981        52.04824        -0.29959
H         66.23629        52.82538        -0.73145
O         47.53833        57.69133         2.07100
H         48.03507        56.94113         2.48478
O         60.60680        61.11817         3.26344
H         60.91461        62.03660         3.46513
O         64.66514        44.24913         2.05770
H         64.59125        43.28232         2.21701
O         69.69482        63.91120         2.83198
H         70.23518        64.69077         2.54515
O         59.52591        44.48364         1.01392
H         59.71685        43.59953         1.39317
H         37.59398        48.89635        -0.59412
H         35.54972        50.18703        -1.15687
H         37.54268        53.86080        -0.08775
H         35.54280        52.67862        -0.94174
H         39.15784        47.94907         0.42649
H         38.97524        54.75166         1.04061
H         41.27895        46.74973         0.49179
H         40.99068        56.04417         0.73706
H         45.15980        44.76099         1.10878
H         43.03527        45.87179         0.87501
H         44.74025        58.31828         0.65521
H         42.65699        57.03936         0.79575
H         46.77324        43.81622         0.59718
H         46.40680        59.18345        -0.31912
H         48.83818        42.60663         0.07411
H         48.53722        60.28550        -0.79450
H         52.50222        40.56306        -1.28249
H         50.38485        41.80625        -1.23934
H         52.19989        62.62864        -0.09555
H         50.12165        61.36963        -0.07588
H         54.11269        39.51262        -0.62220
H         54.05665        63.52327        -0.65710
H         56.23936        38.31816        -0.72240
H         56.15416        64.74847        -0.31254
H         60.02680        36.26547        -1.34636
H         57.89719        37.41798        -1.15465
H         60.10865        66.66667        -0.75140
H         57.93547        65.56268        -0.68039
H         61.72968        35.41392        -1.57744
H         61.93214        67.37041        -1.21357
H         63.89886        34.27100        -1.69104
H         64.11603        68.12209        -1.99809
H         67.54180        32.47301         0.37889
H         65.42789        33.46922        -0.33627
H         67.89476        68.99949        -4.10057
H         65.70277        68.27916        -3.32207
H         69.08003        32.39757         1.72282
H         69.60917        69.56390        -4.68805
H         73.16165        31.17730         1.04571
H         71.04890        31.06133         2.37541
H         73.28789        32.69868        -0.94808
H         73.37403        35.81729        -2.02655
H         73.35344        38.25483        -1.60687
H         73.31328        40.11655        -1.20277
H         73.19322        42.53832        -0.96363
H         73.10622        44.52972        -1.01571
H         73.23079        46.54981         0.26401
H         73.18910        48.41427         0.84015
H         73.12345        50.82287         1.24110
H         73.05430        52.56704         2.17543
H         72.98860        54.94655         2.66438
H         72.94091        56.83128         3.10087
H         72.85920        59.11189         3.83424
H         72.78960        60.39875         2.14760
H         73.05773        62.38292         0.76902
H         73.36602        64.00104        -0.24844
H         73.48312        65.55605        -2.09956
H         73.69040        67.19529        -3.07128
H         73.88636        69.06526        -4.65712
H         71.83780        70.25663        -5.46628
