         294
 CSIRO Nanostructure Databank - Neutral Graphene Oxide Data Set
C          1.29138         2.21979         1.46555
C          1.18513         3.53856         0.98997
C          2.49590         1.54076         1.41720
C          2.30206         4.21070         0.46848
C          0.91114         6.37339         0.18755
C          0.83788         7.70334         0.33394
C          2.18340         5.62185        -0.14895
C          2.04730         8.57805         0.52947
C          1.11311        10.59186        -0.73376
C          1.21754        11.87842        -1.08137
C          2.31018         9.70295        -0.52205
C          2.53774        12.59867        -1.21927
C          1.31354        14.79168        -0.70375
C          1.32544        16.17279        -0.74080
C          2.48994        14.01892        -0.68289
C          2.54986        16.94356        -1.14698
C          2.78066        18.20377        -0.31771
C          3.66177         2.17070         0.88676
C          3.53643         3.52464         0.42187
C          4.88494         1.45956         0.84885
C          4.75058         4.22411        -0.04878
C          3.42991         6.43937         0.20576
C          3.31337         7.75256         0.55814
C          4.73518         5.74372        -0.06120
C          4.45190         8.58142         0.91377
C          3.57673        10.52405        -0.21608
C          3.69121        11.81758        -0.63192
C          4.68010         9.85210         0.46803
C          5.03967        12.49798        -0.70875
C          3.74331        14.74990        -0.26235
C          3.82110        16.08295        -1.07259
C          5.01027        13.96884        -0.43919
C          5.12116        16.81243        -1.11269
C          3.94451        18.86358        -0.37929
C          5.08991        18.34031        -1.24294
C          6.11918         2.01689         0.31170
C          6.06934         3.47860        -0.08934
C          7.44924         1.41514         0.49932
C          7.35215         4.26990         0.12136
C          6.07904         6.39298        -0.00084
C          6.33634         7.48728         0.75160
C          7.23210         5.61173        -0.63425
C          7.53190         8.38349         0.73674
C          5.98004        10.56629         0.83637
C          6.05197        11.95685         0.26380
C          7.29941         9.85335         0.38656
C          7.26244        12.65375         0.53603
C          6.31579        14.68774        -0.41225
C          6.18049        16.19068        -0.25849
C          7.19221        14.13341         0.78244
C          7.27120        17.00667         0.34814
C          6.41177        18.98430        -0.90712
C          7.43495        18.40929        -0.15947
C          8.61387         2.05681         0.07592
C          8.60622         3.48516        -0.22322
C          9.87431         1.37875         0.02485
C          9.77736         4.14500        -0.52347
C          8.53181         6.39706        -0.57331
C          8.62707         7.81217        -0.12026
C          9.80788         5.62746        -0.49210
C          9.95169         8.55593        -0.06363
C          8.45756        10.58495         0.18754
C          8.47759        11.99672         0.47094
C          9.65001         9.98777        -0.56399
C          9.76615        12.62037         0.95215
C          8.52622        14.82294         0.84554
C          8.45002        16.32673         1.07858
C          9.69861        14.14618         0.92999
C          9.74084        17.01354         0.63103
C          8.58126        19.15379         0.19074
C          9.71617        18.53820         0.95253
C         11.07549         2.03169        -0.27816
C         11.06543         3.46805        -0.55057
C         12.31634         1.33340        -0.29106
C         12.25376         4.15640        -0.73158
C         11.08831         6.38547        -0.55128
C         11.02120         7.86172        -0.93088
C         12.30002         5.62395        -0.97013
C         12.31448         8.61135        -0.69130
C         10.97243        10.83641        -0.63464
C         11.03386        12.07415         0.27572
C         12.24975         9.96985        -0.52099
C         12.21554        12.74949         0.41325
C         10.97233        14.84532         1.27069
C         10.97980        16.35235         1.22001
C         12.26868        14.08720         1.08376
C         12.25505        17.11326         1.04715
C         10.96234        19.19048         0.45248
C         12.21437        18.39991         0.21033
C         13.55072         1.99501        -0.40848
C         13.54027         3.47566        -0.50956
C         14.77799         1.31243        -0.35611
C         14.82763         4.21285        -0.71195
C         13.57517         6.40656        -1.14765
C         13.58585         7.87312        -0.78984
C         14.91667         5.64468        -1.27023
C         14.76818         8.51687        -0.58288
C         13.51993        10.73175        -0.46921
C         13.51020        12.17537        -0.07170
C         14.79672         9.96657        -0.14813
C         14.82545        12.82253         0.25530
C         13.56572        14.85769         1.05372
C         13.56487        16.38676         1.09565
C         14.80201        14.19159         0.63326
C         14.77201        17.11583         0.63590
C         13.47981        19.20083         0.36298
C         14.70228        18.57329         0.45769
C         16.04659         1.95677        -0.44156
C         16.12745         3.42327        -0.91799
C         17.24080         1.30076        -0.25039
C         17.21047         4.13918        -0.06506
C         16.08875         6.38306        -0.66401
C         16.11415         7.86459        -0.89598
C         17.19898         5.66463        -0.04711
C         17.23140         8.51690        -0.05030
C         16.05239        10.74850        -0.61847
C         16.01797        12.14561        -0.01094
C         17.30491         9.98845        -0.23798
C         17.32880        12.87714        -0.07683
C         16.02548        14.98711         0.75600
C         15.96085        16.45401         0.56538
C         17.34570        14.29121         0.44115
C         17.15183        17.16783        -0.05183
C         15.95149        19.29761         0.45513
C         17.17088        18.64933         0.28195
C         18.55545         2.00151        -0.49697
C         18.48445         3.36176         0.27262
C         19.78875         1.26830        -0.00628
C         19.78009         4.11899         0.06410
C         18.53239         6.36032         0.28908
C         18.58598         7.77299        -0.34751
C         19.78491         5.57372        -0.09565
C         19.80488         8.51503         0.09100
C         18.52701        10.64909         0.22450
C         18.53564        12.11035         0.46512
C         19.82788         9.96176        -0.26214
C         19.82896        12.89548         0.46062
C         18.50021        15.05042        -0.00392
C         18.49525        16.51480         0.33705
C         19.80746        14.35064         0.10116
C         19.68423        17.23117        -0.32627
C         18.41364        19.33407         0.28632
C         19.65441        18.70940         0.02651
C         20.91378         1.95581         0.27346
C         20.96182         3.41947         0.18667
C         22.20194         4.13160         0.40109
C         21.09764         6.31752         0.12093
C         21.09270         7.81067         0.48755
C         22.25773         5.49053         0.47582
C         22.27438         8.52924        -0.16820
C         21.12231        10.65245         0.15626
C         21.13159        12.13329         0.41287
C         22.31402         9.86473        -0.28193
C         22.34181        12.98294         0.27839
C         21.05636        15.04508        -0.43247
C         21.04685        16.55304         0.02134
C         22.30748        14.29359        -0.02214
C         22.14809        17.39220        -0.58794
C         20.84724        19.41382        -0.11688
C         22.04221        18.75006        -0.55198
O          5.40052         7.92265         1.70528
O         14.28513         4.14352         0.61939
O         10.56349         6.04014         0.74910
O         19.91739        13.90964         1.52094
O         20.57815         6.05706        -1.23324
O          6.05129         2.50965        -1.12996
O          6.02418        16.74524         1.08948
O          8.35469         7.50674        -1.52088
O         11.63536        14.19808         2.40376
O         13.77973        15.61909         2.30109
O          4.66351        16.04987        -2.26497
O          4.60227         4.96034        -1.30578
O         12.74308         6.06345        -2.30457
O         13.56107        11.77921        -1.52089
O         16.69757         4.80948         1.09471
O         16.94432        14.52355         1.83773
O         16.44809         3.37608        -2.26242
O         21.20240        11.14261         1.51800
O         11.56117        17.09872         2.33053
O         18.44965        11.19693         1.60254
O         16.92491        17.02847        -1.47590
H         17.78777        17.22751        -1.92707
O         16.29938         8.14093        -2.30784
H         16.03025         7.32972        -2.80619
O          7.07619        14.44352        -1.61316
H          6.69961        13.63196        -2.04680
O         10.98864        11.41398        -1.96996
H         11.91114        11.73606        -2.14100
O         10.50231         8.65086         1.25537
H          9.75392         8.67330         1.90325
O          9.86375        12.21107         2.35016
H         10.55084        12.78733         2.77241
O          3.58678        15.13528         1.13650
H          4.48403        15.20875         1.53978
O         18.63885        16.64014         1.78096
H         18.09065        15.91785         2.18872
O          7.40803         4.55562         1.54286
H          8.30334         4.89096         1.76581
O          2.07010         5.44089        -1.58054
H          2.95562         5.15184        -1.91376
O          6.05925        10.59317         2.29259
H          6.71234        11.28548         2.53676
O         19.52274        17.20193        -1.76995
H         19.94295        16.37528        -2.11949
O         10.76870         7.89749        -2.34170
H         10.08412         8.59275        -2.52238
O         16.91702         8.26346         1.35048
H         16.30327         8.98109         1.65719
O         17.63931        13.03512        -1.50090
H         17.25504        12.25923        -1.99031
O          6.50175        14.35369         2.01529
H          6.90118        15.14273         2.46244
O         15.22194         5.60499        -2.68556
H         14.36660         5.48879        -3.16464
O         21.29831         7.89223         1.91953
H         21.24329         8.83719         2.18211
O         21.01016        15.01391        -1.88940
H         20.91702        14.08331        -2.18398
O          9.51991        18.76388         2.39562
H         10.34156        18.43664         2.83880
O          2.82574        12.74389        -2.66434
H          2.25617        13.46116        -3.01793
O         18.67254         6.43647         1.71726
H         17.94793         7.00884         2.06695
O          9.11648         9.88594        -1.90428
H          9.36382        10.71191        -2.38228
O         14.85803         9.97212         1.31575
H         14.07343         9.49332         1.66075
O          8.00506         8.39656         2.12417
H          7.29042         8.84485         2.63911
O          8.24498        16.47105         2.49767
H          8.45167        17.41796         2.73284
O          7.02398         5.29360        -2.00937
H          7.11277         6.12523        -2.52329
O         21.27897        16.57285         1.43626
H         20.41542        16.41034         1.89507
O          5.54043        12.25443        -2.09797
H          4.76815        12.42446        -2.69192
O         12.22269        17.87835        -1.19833
H         12.37996        18.64425        -1.79180
O         18.77048         2.22992        -1.89455
H         17.93229         2.62703        -2.28490
O         18.64198         7.66678        -1.79622
H         19.45422         7.13639        -2.01060
O         16.03175        10.90444        -2.06759
H         15.16165        11.30601        -2.30878
O          4.77059        18.67355        -2.62105
H          5.26693        18.05112        -3.19578
O          2.56655         9.02063        -1.77131
H          2.69970         9.69703        -2.46806
O          9.76015        16.82880        -0.79756
H         10.59245        17.23041        -1.16373
O         18.41067         3.01097         1.67164
H         18.08603         3.80831         2.14993
O         19.77180        10.13446        -1.71592
H         19.21383         9.39554        -2.07810
O          2.32046        17.36268        -2.51001
H          3.09864        17.92025        -2.77151
O          1.89298         9.26453         1.79246
H          1.78625         8.59628         2.50029
H          0.40024         1.72345         1.87449
H          0.20974         4.04067         1.04024
H          2.56674         0.50635         1.78222
H         -0.02902         5.80812         0.09303
H         -0.14796         8.17855         0.46334
H          0.11839        10.12146        -0.68999
H          0.30146        12.44079        -1.31889
H          0.33254        14.28968        -0.70843
H          0.37076        16.71911        -0.73001
H          1.94852        18.59803         0.28541
H          4.92499         0.46649         1.32153
H          4.09296        19.79825         0.18146
H          7.50687         0.37783         0.86292
H          6.55723        20.00692        -1.28893
H          9.89815         0.30156         0.24932
H          8.67213        20.19023        -0.16749
H         12.30856         0.24211        -0.14658
H         11.04443        20.28352         0.55874
H         14.75880         0.21125        -0.31386
H         13.43059        20.29515         0.25591
H         17.23968         0.29172         0.19537
H         15.92247        20.39243         0.57132
H         19.78183         0.16794         0.02335
H         18.40881        20.41898         0.48371
H         21.83587         1.42788         0.56132
H         23.09794         3.53906         0.64013
H         23.17004         5.98933         0.83412
H         23.13808         7.92043        -0.47708
H         23.20070        10.37874        -0.68336
H         23.30493        12.50969         0.52301
H         23.25346        14.85528        -0.05469
H         23.07793        16.91496        -0.93170
H         20.86232        20.50483         0.02578
H         22.89047        19.37300        -0.87370
