         280
 CSIRO Nanostructure Databank - Neutral Graphene Oxide Data Set
C         30.71082        31.50251        -1.56352
C         30.69699        32.73471        -1.54112
C         30.53867        35.85009        -0.90559
C         30.48300        36.93189        -0.32810
C         30.25090        40.16812         0.73378
C         30.17783        41.38705         0.95516
C         33.24429        28.71505        -1.80349
C         32.13852        29.26026        -1.81261
C         33.17734        31.47559        -1.42219
C         31.86174        30.62836        -1.37132
C         33.11586        33.00622        -1.40428
C         31.76415        33.72349        -1.36625
C         32.89209        36.06097        -1.41006
C         31.60100        35.17588        -1.72865
C         32.78035        37.48145        -0.89731
C         31.39866        38.07149        -0.50478
C         32.56368        40.35475        -0.07954
C         31.28298        39.48520        -0.06414
C         32.56076        41.74604         0.52778
C         31.27198        42.33581         1.15285
C         32.33749        44.46519         0.70594
C         31.35024        43.78991         1.01385
C         35.95991        27.24108        -1.03543
C         35.64945        28.69826        -0.95647
C         34.63853        29.20569        -1.99679
C         35.72315        31.59215        -1.40460
C         34.49677        30.79864        -1.78168
C         35.65258        33.11133        -1.22314
C         34.37083        33.84232        -1.55567
C         35.45665        36.08041        -0.79152
C         34.25339        35.36239        -1.34736
C         35.32466        37.48572        -0.23862
C         33.99739        38.19133        -0.31330
C         35.18737        40.59273        -0.19548
C         33.91133        39.71107        -0.32066
C         34.98530        41.89699         0.58985
C         33.72838        42.59931         0.17003
C         34.82822        44.82161         0.85230
C         33.67644        44.14056         0.07277
C         35.12560        46.21968         0.38979
C         38.37267        27.11651        -0.82073
C         37.02998        26.65142        -1.16757
C         38.33292        28.65369        -0.80123
C         37.05177        29.39423        -1.12620
C         38.11754        31.64419        -0.30320
C         37.02440        30.91358        -1.04011
C         37.82031        33.03012         0.24285
C         36.61722        33.76913        -0.27336
C         37.88815        36.02293         0.14283
C         36.69526        35.28097        -0.39232
C         37.97759        37.56483         0.03822
C         36.60198        38.29887        -0.17022
C         37.59610        40.48458         0.78173
C         36.48906        39.79451         0.02922
C         37.52819        41.93107         1.19035
C         36.19394        42.66002         1.03221
C         37.51882        44.77832         0.40347
C         36.19785        44.09931         0.62972
C         37.53311        46.25636        -0.03111
C         36.17950        46.78835         0.12416
C         40.23840        24.26678         0.84251
C         39.34309        24.90361         0.27756
C         40.23037        27.06011         0.95184
C         39.39007        26.32714        -0.09765
C         40.22525        28.56384         0.96920
C         39.44555        29.37849        -0.04964
C         40.10019        31.54870         1.36769
C         39.30632        30.85326         0.25276
C         40.31581        33.03276         0.83889
C         38.97251        33.79570         0.88667
C         40.20198        36.08198         1.30838
C         38.93397        35.30628         0.97355
C         40.29625        37.63893         1.26535
C         38.91518        38.25420         1.02090
C         40.15246        40.51987         0.70013
C         38.89605        39.73933         0.99344
C         40.12737        42.00545         0.94670
C         38.85311        42.69863         1.52128
C         40.09764        44.95004         0.82669
C         38.79626        44.19651         1.00585
C         40.11916        46.33482         0.19737
C         38.80665        46.98393        -0.22004
C         40.05607        48.78919        -1.06258
C         39.02941        48.44875        -0.38860
C         42.69903        24.24272         1.74397
C         41.32630        24.73341         1.69086
C         42.64370        27.06538         1.89176
C         41.34428        26.32122         1.67228
C         42.69920        28.54610         1.55007
C         41.34660        29.22826         1.82148
C         42.73020        31.51207         1.85912
C         41.40918        30.78166         1.73684
C         42.73952        33.04372         1.74971
C         41.46696        33.78717         1.48513
C         42.72342        35.97108         0.89061
C         41.47185        35.30242         1.36051
C         42.70828        37.45193         0.51893
C         41.43516        38.23654         0.44728
C         42.71411        40.44481         0.95731
C         41.49041        39.79121         0.29311
C         42.73755        41.93291         0.96563
C         41.47060        42.70833         1.12163
C         42.74019        45.05801         0.75419
C         41.44759        44.23083         1.02141
C         42.60129        45.98431        -0.48065
C         41.39571        46.93235        -0.32625
C         42.53302        48.40915        -1.83205
C         41.30214        48.19153        -1.20538
C         43.75238        24.88429         1.77530
C         45.26716        27.03218         1.80618
C         43.97305        26.31115         2.00672
C         45.33309        28.55168         1.76812
C         44.01081        29.28772         1.59934
C         45.19570        31.45668         1.09244
C         44.09512        30.78704         1.94271
C         45.26613        32.96395         1.17560
C         44.04548        33.76503         1.54198
C         45.29147        35.94496         1.10965
C         43.98655        35.18411         0.98555
C         45.27983        37.40976         0.62796
C         44.01969        38.20450         0.49315
C         45.34956        40.36249         1.11824
C         44.00685        39.65165         0.97439
C         45.36523        41.87942         0.98356
C         44.02596        42.64976         1.03537
C         45.22848        44.67025        -0.05117
C         44.02306        44.15120         0.72083
C         45.21076        46.14355        -0.48618
C         43.90165        46.78513        -0.74661
C         43.63900        47.80825        -1.78754
C         47.22118        27.09858         0.38498
C         46.38540        26.46576         1.03345
C         47.72967        28.45862         0.53846
C         46.66548        29.31710         1.41127
C         47.73444        31.46797         0.43472
C         46.45584        30.69955         0.77359
C         47.65631        32.94580         0.16749
C         46.34681        33.66515         0.37714
C         47.61206        35.92382        -0.08498
C         46.37102        35.16590         0.35302
C         47.81411        37.31384         0.46480
C         46.60164        38.09462         0.86758
C         47.91785        40.23924         0.44495
C         46.64352        39.59580         0.97467
C         47.91277        41.72258         0.21210
C         46.65386        42.53732         0.54000
C         47.81690        44.60503        -0.48841
C         46.51491        43.88194        -0.14593
C         47.49822        45.78588        -1.31183
C         46.46587        46.44249        -1.16530
C         49.50443        28.68090        -1.43039
C         48.77040        29.16672        -0.25150
C         49.98416        31.39814        -0.90186
C         48.90863        30.68658        -0.14592
C         49.86503        32.87264        -1.22411
C         48.67728        33.63927        -0.72378
C         50.07957        35.84309        -0.94454
C         48.75480        35.15695        -0.67346
C         50.34459        37.15113        -0.19451
C         49.18060        37.94886         0.35618
C         50.55028        40.18082         0.28537
C         49.24170        39.46444         0.55764
C         50.53694        41.69811        -0.01143
C         49.23474        42.47093         0.10387
C         50.34609        44.30928        -1.11083
C         49.13036        43.91787        -0.40006
C         50.23961        29.30023        -2.21013
C         51.44882        31.52978        -2.93843
C         51.13195        30.45406        -1.99645
C         51.62180        32.74643        -2.82023
C         51.21190        33.55513        -1.59986
C         52.42590        35.84976        -1.46500
C         51.19222        35.06759        -1.64137
C         52.58706        37.03859        -1.17413
C         51.70419        37.86211        -0.33552
C         52.82592        40.18520        -0.70142
C         51.79717        39.33985        -0.09631
C         52.60161        41.31031        -1.22111
C         51.65213        42.28040        -0.90238
C         51.28219        43.53289        -1.40765
O         47.72010        40.79009        -0.90299
O         47.42482        37.44359         1.87500
O         37.97559        29.02820        -2.17089
O         44.67270        47.12766         0.41111
O         40.92158        25.49331         2.81154
O         40.81131        35.73600         2.58250
O         45.83588        34.38620        -0.76072
O         39.85416        41.49299        -0.37343
O         45.59551        27.79084         2.98848
O         44.21076        43.69719         2.07393
O         36.58643        33.13786         1.02992
O         40.20649        30.35278        -0.78994
O         41.90555        37.56695        -0.72365
O         43.26574        26.76382         3.17295
O         43.27941        35.22683        -0.26268
O         45.40456        30.85780        -0.21734
O         38.11502        31.57756        -1.75355
O         50.02467        37.11440         1.21497
O         38.52176        34.47078         2.08757
O         48.66108        44.82105         0.64663
O         50.21149        31.06132         0.46224
O         50.26575        35.83881        -2.40712
O         33.12594        40.26520        -1.40995
O         41.92444        31.18931         3.03201
O         37.85318        35.53124        -1.24549
O         32.90836        37.20368        -2.31637
O         45.53935        43.83759        -1.22740
O         50.10242        39.89608         1.63198
O         32.28023        41.78122         2.00174
O         35.23051        42.14836         2.00507
O         36.81823        39.21911        -1.27238
O         41.49854        43.58493         2.31004
O         50.18529        42.41892         1.20320
O         37.22597        40.88535         2.14142
O         46.30750        42.48350         1.92841
O         39.30693        45.06104         2.05316
O         41.88580        33.52312         2.83888
O         35.40263        33.66186        -2.54398
O         39.31927        27.80670         1.82912
O         48.17146        32.43524         1.43042
O         43.36330        28.93982         0.32583
O         36.84117        44.07472        -0.68575
O         40.94676        47.21690         1.01406
O         43.18636        39.78162         2.17913
O         30.92454        39.08597        -1.40845
O         44.79512        37.82264        -0.68321
O         49.07438        28.54644         1.02530
O         32.60416        30.92508        -0.18495
O         46.14141        39.97687         2.28113
O         52.20561        38.38495         0.89638
O         47.76177        35.82971        -1.52151
O         38.16365        46.35352        -1.34474
O         34.47516        37.61729         0.94544
O         48.73912        33.14171        -2.09466
O         32.48424        33.48790        -0.15082
O         35.30749        31.37301        -2.80938
O         35.20339        36.04777        -2.21584
O         38.57515        38.95051         2.22450
O         45.07468        33.47784         2.51918
O         39.57524        26.64258        -1.48445
O         34.58889        44.77920         2.23692
H         33.62954        44.90417         2.40838
O         47.32843        29.61071         2.62571
H         47.20241        28.85661         3.24564
O         42.35935        45.12777        -1.60687
H         42.41216        45.65023        -2.43620
O         41.71508        40.05683        -1.09346
H         41.06385        39.55928        -1.63182
O         45.48557        35.96378         2.52694
H         46.34653        36.38613         2.75871
O         42.92177        45.90364         1.88134
H         42.96544        45.33032         2.67928
O         40.73562        38.07931         2.56030
H         40.08865        37.80648         3.24581
O         33.76208        44.55947        -1.26860
H         33.14675        44.03716        -1.82204
O         44.53821        30.87378         3.29845
H         43.75130        30.87228         3.88838
O         41.08535        28.89621         3.18383
H         40.14355        29.06936         3.39376
O         39.28595        31.58509         2.53327
H         39.82250        31.96291         3.26678
O         35.09239        28.92975        -3.29311
H         35.50487        29.74001        -3.67441
O         35.21487        29.07415         0.34322
H         34.30712        28.73360         0.49872
O         31.33470        35.26684        -3.10032
H         31.40007        36.21108        -3.36932
O         52.23801        30.14100        -1.23714
H         52.02335        29.42799        -0.60025
O         38.75448        37.80710        -1.15760
H         38.37229        37.27335        -1.89297
O         40.73532        33.01688        -0.53671
H         40.14615        32.48638        -1.11606
O         39.00960        42.70327         2.92656
H         38.21760        43.08433         3.35639
O         52.15517        33.25398        -0.58688
H         52.32806        32.28637        -0.55712
O         35.37532        41.20099        -1.49567
H         35.59759        40.49863        -2.14697
