         600
 CSIRO Nanostructure Databank - Neutral Graphene Oxide Data Set
C         23.16177        27.40227         1.47571
C         23.18913        28.77076         1.56578
C         23.30073        31.67538         1.87801
C         23.35055        33.03969         2.01819
C         23.43283        35.94580         2.24707
C         23.43350        37.31736         2.26602
C         23.33986        40.22815         2.10048
C         23.29602        41.59394         2.02933
C         23.25775        44.53165         2.01379
C         23.25418        45.90469         1.99373
C         25.49661        24.55321         0.90514
C         24.33914        25.25199         1.14253
C         25.51074        27.37459         0.75215
C         24.33354        26.67550         1.11067
C         25.52100        28.81432         0.78315
C         24.36991        29.51042         1.25364
C         25.60834        31.64282         1.05854
C         24.41889        30.93864         1.39061
C         25.65470        33.06735         1.18717
C         24.51690        33.77708         1.66784
C         25.70697        35.92159         1.33551
C         24.55103        35.20894         1.75814
C         25.70946        37.35606         1.34720
C         24.54964        38.06714         1.79411
C         25.66105        40.21847         1.30243
C         24.51853        39.49496         1.75251
C         25.63736        41.64972         1.23130
C         24.43629        42.36735         1.63982
C         25.73685        44.49457         1.52434
C         24.41782        43.77098         1.67991
C         25.60767        45.97700         1.27209
C         24.41854        46.65517         1.59502
C         25.51191        48.77706         1.13312
C         24.38120        48.06960         1.49220
C         27.99913        23.08738         0.52811
C         27.94423        24.50160         0.40151
C         26.71489        25.22690         0.59195
C         27.90086        27.33256         0.07008
C         26.71029        26.64192         0.46686
C         27.78845        28.79554        -0.32577
C         26.68306        29.53040         0.39295
C         27.95286        31.65589         0.24005
C         26.74873        30.92909         0.55440
C         27.99210        33.06435         0.36301
C         26.83525        33.78415         0.81618
C         28.03026        35.92270         0.47335
C         26.85939        35.20319         0.88081
C         28.01689        37.34799         0.46061
C         26.84791        38.07090         0.88241
C         27.91513        40.23899         0.33237
C         26.81939        39.50860         0.85853
C         27.91094        41.65360         0.29306
C         26.75535        42.34624         0.73141
C         27.95824        44.55371         0.37720
C         26.63034        43.83335         0.47884
C         27.96573        45.97145         0.51492
C         26.75540        46.69032         0.86177
C         27.94617        48.84464         0.54027
C         26.72885        48.11419         0.82693
C         27.97451        50.26048         0.49473
C         30.39188        23.08511         0.05807
C         29.17927        22.40466         0.35092
C         30.37656        24.49499        -0.06911
C         29.13844        25.20503         0.08580
C         30.30207        27.29967        -0.62055
C         29.08266        26.62182        -0.12350
C         30.30341        28.81672        -0.70188
C         29.09781        29.54299        -0.29543
C         30.35412        31.65829        -0.44282
C         29.13753        30.92837        -0.15245
C         30.33034        33.06406        -0.42557
C         29.18041        33.78683         0.00833
C         30.37868        35.95176        -0.31388
C         29.19608        35.21668         0.04567
C         30.34781        37.38020        -0.36940
C         29.15467        38.05000        -0.02950
C         30.26966        40.26658        -0.67896
C         29.02469        39.49218        -0.27029
C         30.26594        41.72955        -0.47111
C         29.11390        42.39352        -0.10486
C         30.35187        44.58008        -0.12215
C         29.12027        43.85674         0.02786
C         30.37300        45.99425         0.04382
C         29.16277        46.70007         0.30662
C         30.38609        48.85157         0.14595
C         29.16338        48.13680         0.34135
C         30.38597        50.27321         0.11924
C         29.15293        50.95061         0.28532
C         32.84644        20.24133        -0.14840
C         31.66226        20.93847        -0.04658
C         32.85479        23.06060        -0.24122
C         31.63518        22.35627        -0.08178
C         32.85160        24.49705        -0.35204
C         31.61041        25.20719        -0.30775
C         32.80888        27.33755        -0.63642
C         31.60052        26.61010        -0.50584
C         32.80921        28.78280        -0.70878
C         31.59630        29.51392        -0.67128
C         32.82266        31.61847        -0.80461
C         31.58893        30.93351        -0.66799
C         32.82412        33.05778        -1.07489
C         31.49804        33.82234        -0.89541
C         32.79330        35.95706        -0.88134
C         31.56845        35.26823        -0.67923
C         32.80495        37.39004        -0.90954
C         31.54957        38.11698        -0.73975
C         32.74433        40.28057        -1.08812
C         31.52854        39.50772        -0.77101
C         32.77842        41.69406        -0.53179
C         31.51125        42.47157        -0.90980
C         32.79380        44.57049        -0.39043
C         31.56793        43.89679        -0.40876
C         32.82360        45.99254        -0.22346
C         31.60541        46.70895        -0.06564
C         32.85220        48.83711        -0.12608
C         31.61892        48.13434        -0.00864
C         32.85374        50.27386        -0.18441
C         31.62927        50.98801        -0.08463
C         32.84195        53.08192        -0.39070
C         31.65889        52.40162        -0.18779
C         35.36819        18.77456        -0.39613
C         35.33255        20.19288        -0.34099
C         34.08768        20.91676        -0.26007
C         35.32709        23.05310        -0.37331
C         34.08886        22.34028        -0.29677
C         35.32504        24.48321        -0.51184
C         34.06745        25.20181        -0.53693
C         35.27513        27.35327        -0.77436
C         34.05579        26.63218        -0.64934
C         35.28580        28.76525        -0.77987
C         34.05196        29.48831        -0.72899
C         35.29012        31.64807        -0.83168
C         34.05533        30.91996        -0.78007
C         35.29285        33.08725        -0.88959
C         34.07258        33.81618        -0.96679
C         35.27664        35.96204        -0.96608
C         34.04096        35.23452        -0.97757
C         35.28337        37.38540        -1.02000
C         34.03209        38.07159        -1.07951
C         35.33567        40.27749        -1.25735
C         34.03120        39.52816        -1.30486
C         35.31710        41.77238        -1.04222
C         34.04385        42.48179        -0.80475
C         35.30097        44.57463        -0.46912
C         34.04707        43.84406        -0.59019
C         35.29263        45.95205        -0.28092
C         34.06262        46.69580        -0.23529
C         35.33144        48.83791        -0.30974
C         34.07793        48.11628        -0.19630
C         35.32481        50.26113        -0.44057
C         34.08454        50.98080        -0.37350
C         35.32165        53.11019        -0.70057
C         34.07920        52.39769        -0.48906
C         35.35010        54.51109        -0.89060
C         37.80673        18.76799        -0.46328
C         36.56033        18.08703        -0.46243
C         37.79900        20.19088        -0.41129
C         36.56196        20.90670        -0.36194
C         37.79512        23.05646        -0.31531
C         36.55535        22.34205        -0.35512
C         37.78640        24.49766        -0.43943
C         36.54266        25.17125        -0.62231
C         37.80092        27.35863        -0.79851
C         36.53778        26.59894        -1.10012
C         37.77962        28.78005        -0.80915
C         36.53310        29.49508        -0.81476
C         37.76415        31.62822        -0.76118
C         36.52218        30.91800        -0.79652
C         37.76699        33.08750        -0.81151
C         36.52097        33.81326        -0.90769
C         37.73865        35.97594        -0.96624
C         36.51386        35.23985        -0.94092
C         37.77789        37.38406        -0.92779
C         36.53819        38.11490        -0.97081
C         37.78630        40.25625        -0.77242
C         36.57374        39.52868        -0.96023
C         37.78566        41.68926        -0.63006
C         36.57010        42.44506        -0.65264
C         37.79284        44.54434        -0.31760
C         36.55047        43.83015        -0.44779
C         37.80685        45.94799        -0.22677
C         36.54727        46.68912         0.10783
C         37.78628        48.81774        -0.49430
C         36.55248        48.14132        -0.29680
C         37.79168        50.25067        -0.65003
C         36.55468        50.96465        -0.59269
C         37.78339        53.09853        -0.89569
C         36.55278        52.39305        -0.72409
C         37.77250        54.49826        -1.14920
C         36.53711        55.18150        -1.13215
C         40.30294        15.95609        -0.58850
C         39.10676        16.63528        -0.56923
C         40.28569        18.78573        -0.46658
C         39.06060        18.05759        -0.50227
C         40.27919        20.21267        -0.39395
C         39.03572        20.91295        -0.37438
C         40.26900        23.03671        -0.03632
C         39.00721        22.33150        -0.26640
C         40.25702        24.57036        -0.12230
C         38.99820        25.23346        -0.46012
C         40.26772        27.36566        -0.63658
C         39.01557        26.65482        -0.66237
C         40.27045        28.78264        -0.75179
C         39.01479        29.49771        -0.79800
C         40.24304        31.67016        -0.88488
C         38.97513        30.91582        -0.79191
C         40.20859        33.07672        -0.34335
C         38.96318        33.78261        -0.79755
C         40.30362        35.95507        -1.00093
C         38.98845        35.21861        -1.08378
C         40.26559        37.40088        -0.73778
C         39.03849        38.09660        -0.80628
C         40.24380        40.24121        -0.50492
C         39.02958        39.53853        -0.68236
C         40.25630        41.67642        -0.39118
C         39.01504        42.39219        -0.43836
C         40.25502        44.53328        -0.29108
C         39.02445        43.81548        -0.35459
C         40.26729        45.95187        -0.34339
C         39.02395        46.66874        -0.32432
C         40.27416        48.75113        -0.80334
C         39.00677        48.08107        -0.48946
C         40.29087        50.26391        -0.93294
C         39.01101        50.97551        -0.76907
C         40.27974        53.08557        -0.96500
C         39.02548        52.37965        -0.85606
C         40.25294        54.47527        -1.28834
C         39.01798        55.17851        -1.45241
C         40.24555        57.10622        -2.31421
C         39.04551        56.49822        -1.93939
C         42.77905        15.96535        -0.55445
C         41.53858        16.65953        -0.54592
C         42.77317        18.79029        -0.46179
C         41.53276        18.08072        -0.49242
C         42.76784        20.22290        -0.42240
C         41.52762        20.92912        -0.37436
C         42.75231        23.07546        -0.31863
C         41.54178        22.34222        -0.26057
C         42.74699        24.52377        -0.36996
C         41.53473        25.24758        -0.38160
C         42.75377        27.36347        -0.57837
C         41.51436        26.65801        -0.55391
C         42.74462        28.79123        -0.61421
C         41.51929        29.47186        -0.73506
C         42.76246        31.67303        -0.43967
C         41.54513        30.93774        -0.85386
C         42.72163        33.05066        -0.34832
C         41.50288        33.82155        -0.54892
C         42.83574        35.92609        -0.86177
C         41.53715        35.17830        -0.69442
C         42.73045        37.36745        -0.40391
C         41.50317        38.06522        -0.44610
C         42.66349        40.20010        -0.09318
C         41.48775        39.51455        -0.34158
C         42.76862        41.66302        -0.40733
C         41.46816        42.39354        -0.23319
C         42.71371        44.53591        -0.08781
C         41.48989        43.80888        -0.19472
C         42.73773        45.92854        -0.22396
C         41.51199        46.66103        -0.36685
C         42.75871        48.80553        -0.47127
C         41.54201        48.06681        -0.51339
C         42.74897        50.25571        -0.51934
C         41.56638        50.97793        -0.70304
C         42.74522        53.18115        -0.82061
C         41.53023        52.41774        -0.80430
C         42.71948        54.52539        -1.18843
C         41.48044        55.16063        -1.50983
C         42.72061        57.00845        -2.60275
C         41.46884        56.45944        -2.10400
C         43.97065        16.65220        -0.50537
C         45.24793        18.80330        -0.41142
C         44.00309        18.07526        -0.45871
C         45.23889        20.22678        -0.41207
C         43.99515        20.94325        -0.40978
C         45.22765        23.09131        -0.47143
C         43.98995        22.37077        -0.40021
C         45.22683        24.51638        -0.53943
C         43.98747        25.22975        -0.49876
C         45.23036        27.37236        -0.58708
C         43.98843        26.65239        -0.55364
C         45.22933        28.80055        -0.51101
C         43.99355        29.51452        -0.50369
C         45.23321        31.59844        -0.13861
C         43.99847        30.92390        -0.32767
C         45.23925        33.02270         0.19287
C         43.91790        33.80429         0.04946
C         45.20409        35.90500         0.00261
C         44.00696        35.22575        -0.22062
C         45.18401        37.35670         0.01079
C         43.94348        38.02480        -0.06127
C         45.16430        40.21110         0.45814
C         43.87211        39.45623         0.26889
C         45.16265        41.68938         0.32171
C         43.98988        42.35964         0.14306
C         45.23968        44.53234        -0.03546
C         43.96136        43.84337         0.38444
C         45.21333        45.92406        -0.25330
C         43.99039        46.65172        -0.27492
C         45.24026        48.78030        -0.22082
C         43.98535        48.07286        -0.38037
C         45.21870        50.18430         0.04845
C         44.05229        50.98916        -0.43678
C         45.23534        53.42211        -0.37484
C         44.05974        52.50199        -0.60862
C         45.24648        54.70820        -0.95844
C         43.93420        55.42862        -1.15146
C         43.90119        56.45487        -2.25754
C         47.68889        18.82893        -0.32914
C         46.50121        18.13363        -0.36677
C         47.71406        20.25065        -0.36160
C         46.47073        20.94936        -0.41359
C         47.69294        23.09201        -0.57567
C         46.46110        22.37821        -0.47337
C         47.67510        24.49784        -0.72177
C         46.46206        25.22604        -0.67536
C         47.68628        27.40646        -0.69594
C         46.46487        26.67232        -0.67760
C         47.71195        28.80332        -0.51833
C         46.46932        29.50885        -0.43382
C         47.71575        31.64331        -0.14101
C         46.46812        30.92133        -0.26116
C         47.70271        33.04246         0.02385
C         46.48851        33.78042         0.10979
C         47.69363        35.94007         0.16196
C         46.44551        35.19116         0.17612
C         47.67652        37.37240         0.21362
C         46.42030        38.08280         0.21267
C         47.64054        40.22993         0.76836
C         46.41664        39.47332         0.34423
C         47.62831        41.67431         0.33858
C         46.45025        42.38650         0.28429
C         47.71601        44.51210        -0.03341
C         46.44818        43.80998         0.00320
C         47.73091        45.91977        -0.13402
C         46.49247        46.63857        -0.60197
C         47.67012        48.73350         0.13860
C         46.45774        48.07642        -0.17263
C         47.62557        50.07787         0.59445
C         46.36874        50.73763         0.59980
C         47.67030        53.64894         0.08429
C         46.41570        53.01897         0.26838
C         47.66917        54.84846        -0.65572
C         46.46018        55.40995        -1.06511
C         50.21172        20.31342        -0.12570
C         48.94735        20.97818        -0.38014
C         50.19076        23.09232        -0.66375
C         48.94619        22.37964        -0.56607
C         50.21957        24.48175        -0.76132
C         48.94634        25.19486        -0.97670
C         50.23286        27.40283        -0.72167
C         48.95481        26.70924        -0.95513
C         50.22041        28.80228        -0.53638
C         48.97017        29.52233        -0.44109
C         50.21374        31.64906        -0.16388
C         48.96295        30.92008        -0.23104
C         50.22799        33.06270        -0.05162
C         48.96675        33.77576         0.36000
C         50.14965        35.99739        -0.10056
C         48.90054        35.24766         0.05460
C         50.16762        37.42160         0.24974
C         48.91143        38.10652         0.32180
C         50.14284        40.21889         0.52651
C         48.91690        39.50657         0.46502
C         50.15977        41.63742         0.46830
C         48.92737        42.32044        -0.06445
C         50.15835        44.49325         0.27589
C         48.93119        43.80676         0.13430
C         50.16332        45.92011         0.24816
C         48.94474        46.62440         0.03882
C         50.14197        48.77734         0.30633
C         48.93357        48.05612         0.13160
C         50.09750        50.20011         0.59744
C         48.84655        50.75374         0.89329
C         50.17011        53.22531         0.08507
C         48.89911        52.99381         0.54320
C         51.39498        20.93955        -0.28444
C         52.70950        23.09904        -0.53244
C         51.46548        22.31283        -0.89378
C         52.70290        24.50089        -0.52525
C         51.44546        25.23355        -0.71923
C         52.75319        27.37361        -0.84876
C         51.44082        26.63842        -0.71664
C         52.69452        28.81800        -0.42383
C         51.47677        29.51543        -0.41651
C         52.66925        31.67657        -0.21649
C         51.45267        30.95398        -0.26292
C         52.67889        33.08312        -0.07070
C         51.43909        33.76738        -0.05182
C         52.66191        35.96135         0.33144
C         51.45793        35.24723        -0.12135
C         52.63439        37.34260         0.60723
C         51.38160        38.08016         0.50016
C         52.56333        40.22161         0.92355
C         51.37269        39.50417         0.65774
C         52.58664        41.63325         0.88613
C         51.36963        42.34612         0.60552
C         52.61703        44.49400         0.58266
C         51.38904        43.77999         0.48197
C         52.62725        45.92109         0.48872
C         51.39173        46.64326         0.35174
C         52.64702        48.78759         0.25724
C         51.37334        48.05900         0.29052
C         52.61947        50.31237         0.45169
C         51.30242        51.01530         0.58861
C         51.30206        52.37975         0.35780
C         55.09019        23.07850        -0.02559
C         53.92771        22.40602        -0.33061
C         55.11367        24.49683         0.04186
C         53.92053        25.21476        -0.25717
C         55.12338        27.34612         0.00948
C         53.95104        26.64357        -0.29422
C         55.14848        28.80539        -0.02380
C         53.94223        29.49338        -0.25063
C         55.23584        31.70800        -0.03278
C         53.93854        30.95525        -0.35049
C         55.11601        33.11049         0.38290
C         53.90029        33.80505         0.24689
C         54.97811        35.86834         1.11516
C         53.84369        35.21242         0.55232
C         55.03629        37.30668         1.26153
C         53.82507        38.00891         1.03961
C         55.08362        40.22748         1.40156
C         53.76028        39.45429         1.29973
C         55.06114        41.66504         1.09079
C         53.83721        42.35802         0.95410
C         55.09167        44.48670         0.72742
C         53.84686        43.77846         0.76738
C         55.08744        45.90214         0.58001
C         53.87613        46.62244         0.52918
C         55.09797        48.78208         0.70720
C         53.89690        48.06053         0.49466
C         55.00852        50.18869         1.05179
C         53.84497        50.88965         1.01904
C         57.52867        24.51825         0.68501
C         56.32257        25.21161         0.36085
C         57.52114        27.34520         0.67184
C         56.31946        26.63046         0.35770
C         57.54385        28.77629         0.68315
C         56.35818        29.51582         0.33050
C         57.54862        31.62781         0.89792
C         56.38821        30.92575         0.43051
C         57.52266        33.05336         1.09726
C         56.23576        33.72385         1.00907
C         57.81077        36.05130         1.60996
C         56.02611        35.01349         1.52889
C         57.60239        37.39443         1.22793
C         56.30721        38.04481         1.33466
C         57.52199        40.18185         0.96057
C         56.31444        39.45092         1.21658
C         57.52031        41.60712         1.00274
C         56.30909        42.35080         0.97881
C         57.58697        44.48283         0.81072
C         56.32340        43.76814         0.81548
C         57.60051        45.89391         0.71019
C         56.36370        46.63960         0.28500
C         57.58747        48.74188         0.89253
C         56.34340        48.08889         0.71476
C         58.68091        25.19856         0.98693
C         59.89614        27.32756         1.30274
C         58.70380        26.62270         0.98660
C         59.91164        28.70214         1.32113
C         58.74196        29.45912         1.02352
C         59.94954        31.63391         1.33601
C         58.75883        30.90371         1.09634
C         59.95030        33.01596         1.34421
C         58.75124        33.76464         1.24849
C         59.92572        35.90794         0.51463
C         58.85004        35.22813         1.15093
C         59.89824        37.28398         0.36693
C         58.74839        38.06890         0.69659
C         59.82613        40.27129         0.08083
C         58.71563        39.49046         0.58927
C         59.88196        41.61190         0.26350
C         58.85516        42.28977         1.14375
C         60.00962        44.50934         1.10855
C         58.81092        43.78978         0.98841
C         60.01639        45.89934         1.07223
C         58.81118        46.60945         0.87112
C         58.78280        48.04758         0.90768
O         44.36155        39.77747         1.64429
O         40.24402        23.87038         1.17432
O         39.75844        35.57710        -2.32197
O         35.46932        41.18186        -2.39971
O         48.75955        52.00162         1.54281
O         40.28897        49.40944        -2.13163
O         44.43177        33.38777         1.36230
O         40.96713        31.46235        -2.12577
O         31.98356        33.42321        -2.21920
O         33.21378        40.00394        -2.43026
O         54.82214        31.45870        -1.41354
O         30.10091        27.97202        -1.92295
O         52.77201        49.73742        -0.87717
O         54.31561        39.85416         2.59443
O         48.93923        25.96651        -2.23543
O         56.89672        35.48649         2.51560
O         29.27066        39.84761        -1.67942
O         46.30424        51.99168         1.20648
O         50.87542        35.73180        -1.38412
O         44.37385        51.61142        -1.75268
O         43.02619        41.69234        -1.87595
H         42.21147        41.37603        -2.32350
O         43.91354        43.99071         1.85664
H         44.71785        43.56046         2.21883
O         46.57728        46.64963        -2.07873
H         46.55041        45.71606        -2.37904
O         25.96174        43.98153        -0.80583
H         26.48872        43.50370        -1.47985
O         27.40539        28.77197        -1.75121
H         28.19319        28.42084        -2.23511
O         26.43429        44.35058         2.80285
H         25.88183        44.77538         3.49203
O         49.03685        33.74276         1.85267
H         48.16039        34.03002         2.19066
O         40.07825        32.90321         1.11078
H         40.14093        33.78471         1.53476
O         32.75971        41.49352         0.91550
H         32.69650        42.37598         1.34063
O         43.11005        35.97133        -2.30490
H         42.25660        36.12732        -2.76494
O         36.51654        46.72554         1.59708
H         36.56851        45.79657         1.90885
O         43.80070        56.20251         0.10010
H         42.96479        56.71269         0.03476
O         56.44152        46.69521        -1.20550
H         57.24378        47.21430        -1.42932
O         31.48221        42.53502        -2.35814
H         30.60732        42.87382        -2.63842
O         36.52442        26.48116        -2.58745
H         36.49008        27.39316        -2.94892
O         49.00425        42.12476        -1.53695
H         49.82036        42.57243        -1.84772
O         59.30103        42.05829         2.53206
H         59.29334        41.08797         2.67847
O         51.53244        22.10309        -2.35121
H         51.51307        22.98816        -2.77460
O         47.55948        40.25039         2.25504
H         46.60808        40.23876         2.50184
O         52.99642        27.43108        -2.30955
H         52.24161        27.91095        -2.71321
H         22.24562        26.84715         1.72342
H         22.27971        29.29648         1.88420
H         22.37465        31.15450         2.15267
H         22.46090        33.55933         2.39599
H         22.54395        35.41857         2.61602
H         22.54593        37.83481         2.65174
H         22.43687        39.69348         2.42203
H         22.36494        42.10392         2.30970
H         22.31966        44.01241         2.25562
H         22.33412        46.45478         2.23818
H         25.47394        23.45752         0.96583
H         23.41069        24.71966         1.39440
H         25.45842        49.87328         1.09808
H         23.44816        48.60169         1.72718
H         27.09361        22.51665         0.76991
H         27.04836        50.83494         0.62784
H         29.17159        21.31318         0.46265
H         29.11747        52.04765         0.26300
H         32.81268        19.14457        -0.12346
H         30.72957        20.36848         0.04966
H         32.80807        54.17640        -0.46784
H         30.72887        52.98037        -0.11653
H         34.43336        18.19911        -0.39482
H         34.41824        55.09107        -0.87534
H         36.52945        16.99063        -0.50532
H         36.50462        56.26632        -1.29989
H         40.31485        14.85768        -0.63602
H         38.17378        16.05778        -0.60443
H         40.23119        58.10416        -2.77532
H         38.10778        57.04797        -2.09545
H         42.77577        14.86663        -0.59672
H         42.67324        57.84413        -3.31714
H         44.90817        16.08106        -0.51014
H         44.84175        56.84937        -2.66748
H         48.63032        18.26454        -0.30612
H         46.53811        17.03650        -0.36004
H         48.60947        55.39084        -0.82791
H         46.46704        56.41613        -1.50546
H         50.19929        19.28614         0.26522
H         50.35242        54.08871        -0.57182
H         52.32132        20.39980        -0.04547
H         52.28407        52.84533         0.17450
H         56.00562        22.49714         0.14207
H         53.95756        21.31186        -0.41145
H         55.90541        50.68573         1.44732
H         53.80661        51.90633         1.43727
H         57.54508        23.42088         0.69928
H         57.61583        49.83270         1.02567
H         59.60104        24.65038         1.23546
H         60.80616        26.75909         1.54257
H         60.84474        29.21639         1.58543
H         60.90425        31.10922         1.47082
H         60.90161        33.55058         1.47527
H         60.79534        35.34081         0.15364
H         60.77388        37.78347        -0.06948
H         60.62393        39.76116        -0.47833
H         60.72920        42.19394        -0.12793
H         60.94991        43.96515         1.27399
H         60.95611        46.45397         1.20710
H         59.72990        48.59084         1.03622
