         576
 CSIRO Nanostructure Databank - Neutral Graphene Oxide Data Set
C          5.83567        19.02918         1.21204
C          6.07027        20.33624         1.54105
C          4.92727        21.14669         1.99480
C          5.91290        23.20474         0.99565
C          4.84955        22.47575         1.78409
C          5.97591        24.69214         1.24091
C          8.45463        14.65529         0.96549
C          8.46849        16.15203         1.25945
C          7.10446        16.86603         1.17979
C          8.89787        19.12457         1.61199
C          6.80848        18.08668         0.60130
C          8.67980        20.46793         1.22388
C          7.36570        21.10764         1.50973
C          8.43345        23.31361         0.66288
C          7.27377        22.58032         1.24526
C          8.31928        24.68179         0.49300
C          7.12378        25.40072         0.93803
C          8.34973        27.57633         0.89373
C          7.19781        26.82632         1.12467
C          8.44095        28.95020         1.22694
C         10.96044        10.38476         0.95097
C         10.90130        11.81316         0.98211
C          9.70608        12.50559         0.85937
C         10.88544        14.67614         0.52698
C          9.62047        13.95184         0.80672
C         10.91610        16.14346         0.51998
C          9.60078        16.86821         0.50840
C         10.87044        18.99915         0.20401
C          9.80407        18.32695         0.87040
C         10.83124        20.41225         0.08275
C          9.69601        21.14474         0.51108
C         10.76711        23.26595        -0.13973
C          9.63307        22.58441         0.30876
C         10.70445        24.72362        -0.37131
C          9.43894        25.46060        -0.07435
C         10.84308        27.62240         0.31867
C          9.51252        26.95806         0.20521
C         10.86097        28.98529         0.80215
C          9.66071        29.64357         1.13988
C         10.93523        31.90221         1.28394
C          9.71792        31.06866         1.57327
C         10.92065        33.37101         1.37856
C         13.43359         6.12831         0.62390
C         13.41709         7.57268         0.66897
C         12.20767         8.26621         0.88225
C         13.48863        10.40691         1.13215
C         12.16496         9.67593         0.95346
C         13.37040        11.81309         0.48649
C         12.21715        12.55051         1.20056
C         13.44324        14.77054         0.87316
C         12.18313        13.95545         0.65029
C         13.34389        16.07302         0.09750
C         12.07370        16.82852         0.20125
C         13.30850        18.91993        -0.34905
C         12.08479        18.24671        -0.06776
C         13.26676        20.34423        -0.72694
C         11.93921        21.11326        -0.57168
C         13.19656        23.24652        -0.66046
C         11.98644        22.57744        -0.46224
C         13.29730        24.68866        -0.18890
C         12.00796        25.49365        -0.36741
C         13.33541        27.48080         0.51877
C         12.01196        26.92278         0.02813
C         13.39700        29.02485         0.55146
C         12.13116        29.75924         0.82161
C         13.19874        31.96340         0.24395
C         12.10909        31.24509         0.65007
C         13.16110        33.45553         0.32789
C         12.03813        34.10025         1.06475
C         13.33692        36.20741         1.26737
C         12.13953        35.50627         1.34807
C         13.43126        37.57365         1.73081
C         15.84456         6.07283         0.18223
C         14.58855         5.41878         0.43204
C         15.80999         7.54700        -0.15587
C         14.63552         8.28305         0.43992
C         15.87812        10.40953         0.35319
C         14.68596         9.68493         0.53196
C         15.90024        11.84954         0.33868
C         14.68116        12.57394         0.48177
C         15.90510        14.68518         0.35736
C         14.70192        13.98342         0.52805
C         15.87230        16.17331         0.34510
C         14.61280        16.82386        -0.12303
C         15.80150        19.01095        -0.43916
C         14.57216        18.28893        -0.28245
C         15.77067        20.43083        -0.67789
C         14.50337        21.12893        -0.74329
C         15.67260        23.28098        -1.08798
C         14.42332        22.52501        -0.81106
C         15.68007        24.76904        -1.16352
C         14.39392        25.53159        -0.88460
C         15.80884        27.59413        -0.46615
C         14.59067        26.82415        -0.10015
C         15.68011        29.06697        -0.64941
C         14.46526        29.79237        -0.18501
C         15.67889        32.04391        -0.63319
C         14.57074        31.28844         0.13753
C         15.68038        33.54520        -0.39895
C         14.43924        34.24257         0.14376
C         15.77347        36.18511         1.05473
C         14.55776        35.55846         0.83608
C         15.86841        37.54846         1.52668
C         14.62863        38.21817         1.84234
C         18.29163         6.06716        -0.07708
C         17.03604         5.38865         0.11725
C         18.30391         7.52247        -0.03480
C         17.12492         8.23127         0.09195
C         18.39196        10.39989         0.06161
C         17.16943         9.66520         0.54303
C         18.38088        11.81667         0.04902
C         17.14222        12.55050         0.22024
C         18.36739        14.70909         0.10631
C         17.14720        13.98834         0.19704
C         18.41497        16.18413         0.15130
C         17.13310        16.96059         0.19244
C         18.25825        19.03006        -0.69025
C         17.06809        18.34639        -0.35261
C         18.21359        20.44076        -0.93701
C         16.98383        21.12790        -0.85356
C         18.15233        23.27703        -1.59525
C         17.00607        22.63891        -0.77372
C         18.18776        24.78275        -1.35784
C         16.98690        25.48719        -1.15189
C         18.22327        27.59121        -1.09309
C         17.00263        26.89214        -1.02577
C         18.21834        29.06485        -1.20801
C         16.91312        29.81761        -1.01199
C         18.14789        31.80539        -1.32668
C         16.95484        31.27441        -0.86000
C         18.23961        33.89167        -0.70601
C         16.98100        34.21441        -0.05011
C         18.32180        36.17597         0.85492
C         17.03592        35.46894         0.80834
C         18.34888        37.53810         1.27787
C         17.10400        38.18290         1.62275
C         20.73754         6.04133        -0.31192
C         19.49062         5.36780        -0.15362
C         20.72371         7.47962        -0.39620
C         19.56567         8.22061        -0.15804
C         20.77614        10.38705        -0.49746
C         19.57811         9.68007        -0.19670
C         20.79668        11.81366        -0.46871
C         19.60927        12.51214        -0.13117
C         20.91601        14.70366        -0.42258
C         19.63154        13.96976         0.04368
C         20.74221        16.08203        -0.95294
C         19.62619        16.90543        -0.41326
C         20.67178        18.98984        -1.22817
C         19.52327        18.32808        -0.84113
C         20.69181        20.44067        -1.18722
C         19.44675        21.17868        -1.11150
C         20.65427        23.32632        -1.19424
C         19.44732        22.57653        -1.25346
C         20.65410        24.72048        -1.28774
C         19.42349        25.47589        -1.33455
C         20.67786        27.68380        -1.25521
C         19.44880        26.90588        -1.22062
C         20.71301        29.06131        -1.13209
C         19.48704        29.81286        -1.09542
C         20.69765        32.09465        -1.23781
C         19.44430        31.19549        -1.19721
C         20.66443        33.28470        -0.20006
C         19.46150        34.22431        -0.18303
C         20.76666        36.14399         0.61593
C         19.51029        35.48014         0.54030
C         20.79624        37.52601         0.98143
C         19.58867        38.19583         1.32541
C         23.21574         5.95718        -0.39342
C         21.96227         5.32732        -0.28486
C         23.24905         7.36863        -0.82095
C         21.94628         8.17109        -0.81382
C         23.17958        10.29386        -1.01458
C         22.00080         9.65096        -0.75674
C         23.16965        11.74956        -1.41930
C         21.99672        12.52878        -0.86741
C         23.25891        14.63129        -1.34110
C         22.04228        13.90417        -0.94863
C         23.21676        16.03788        -1.52905
C         21.94958        16.77270        -1.58745
C         23.18511        19.01516        -1.40359
C         21.90995        18.29544        -1.80470
C         23.14811        20.36296        -1.14329
C         21.90668        21.11172        -1.10846
C         23.16832        23.29067        -1.20232
C         21.88867        22.58376        -0.71658
C         23.17356        24.78100        -0.87728
C         21.89426        25.51648        -1.07443
C         23.20889        27.67996        -1.26091
C         21.93357        26.93946        -1.62628
C         23.22850        29.04352        -1.01563
C         21.99623        29.83301        -1.43698
C         23.15527        31.94964        -0.71984
C         21.98133        31.28953        -0.99968
C         23.17542        33.38080        -0.34867
C         21.96619        34.07138        -0.15213
C         23.21090        36.13969         0.34733
C         21.97389        35.43906         0.25815
C         23.23245        37.56803         0.61483
C         22.03442        38.22398         0.93068
C         25.67767         6.00334        -0.18468
C         24.45090         5.31033        -0.15046
C         25.67908         7.44109        -0.41349
C         24.49615         8.11382        -0.73991
C         25.60012        10.33323        -0.51890
C         24.48212         9.55031        -1.21844
C         25.65088        11.78106        -0.95579
C         24.48170        12.48010        -1.20071
C         25.78870        14.60403        -1.68789
C         24.48087        13.90217        -1.37298
C         25.72255        16.06130        -1.27391
C         24.47577        16.80137        -1.64450
C         25.73716        19.01011        -1.12637
C         24.48594        18.31178        -1.52901
C         25.71712        20.38241        -0.89378
C         24.40887        21.06794        -0.80403
C         25.70656        23.29295        -0.72812
C         24.40598        22.54980        -0.73523
C         25.67979        24.77204        -0.91658
C         24.42765        25.51742        -1.15762
C         25.65256        27.50333        -1.91637
C         24.42489        26.87514        -1.34637
C         25.66788        29.19258        -0.33401
C         24.43286        29.79626        -0.69220
C         25.65428        31.91105        -0.66227
C         24.43521        31.22974        -0.74856
C         25.67311        33.29305        -0.15045
C         24.40676        34.04806        -0.07777
C         25.69094        36.16015         0.45822
C         24.42361        35.42497         0.21730
C         25.69615        37.64088         0.38081
C         24.45775        38.29263         0.52452
C         28.15609         6.02623        -0.05625
C         26.93630         5.34523        -0.03025
C         28.15859         7.47607        -0.18245
C         26.92267         8.13871        -0.37214
C         28.18742        10.32056        -0.41357
C         26.91731         9.58240        -0.65353
C         28.12593        11.79783        -0.25673
C         26.89461        12.52493        -0.66797
C         28.22355        14.57820        -1.01207
C         27.02344        13.93356        -1.08986
C         28.28360        16.05430        -1.22101
C         26.98984        16.80541        -1.06949
C         28.15452        18.96347        -0.73210
C         26.99940        18.29739        -1.05604
C         28.17348        20.41689        -0.33915
C         26.92916        21.14166        -0.75558
C         28.23908        23.21301        -1.01913
C         26.98657        22.53908        -0.85276
C         28.27389        24.68672        -1.12574
C         26.99418        25.46484        -1.06326
C         28.19571        27.60528        -0.87053
C         27.03064        26.85199        -1.67908
C         28.16585        29.11280        -0.91414
C         26.93283        29.80682        -0.67202
C         28.16924        31.92436        -0.81115
C         26.91735        31.23072        -0.75562
C         28.15577        33.43921        -0.86015
C         26.99330        33.98736        -0.04233
C         28.22497        36.22312         0.02071
C         27.00434        35.44759         0.28527
C         28.18662        37.63968         0.16801
C         26.92757        38.31361         0.31504
C         30.62720         6.01089         0.11595
C         29.42181         5.34455         0.08430
C         30.70322         7.51239        -0.04788
C         29.36966         8.19646        -0.01910
C         30.45068        10.32836         0.65444
C         29.38571         9.62014         0.09732
C         30.33057        11.85186         0.81456
C         29.51675        12.37623        -0.41288
C         30.69232        14.66772        -0.19234
C         29.50741        13.88321        -0.66068
C         30.71949        16.13926        -0.30866
C         29.53058        16.80862        -0.88938
C         30.67990        18.99785        -0.31412
C         29.40948        18.23992        -0.48125
C         30.67785        20.46698        -0.47416
C         29.47910        21.13300        -0.63692
C         30.74069        23.24076        -0.93953
C         29.48706        22.54607        -0.89810
C         30.85358        24.65484        -1.46735
C         29.54287        25.43274        -1.49166
C         30.73718        27.63064        -0.91617
C         29.50610        26.93020        -1.30387
C         30.67458        29.05978        -0.75399
C         29.39121        29.79595        -0.88686
C         30.69867        31.96691        -0.94489
C         29.37357        31.22369        -0.82434
C         30.64091        33.40347        -0.44555
C         29.46011        34.10206        -0.45911
C         30.65185        36.26872        -0.19394
C         29.43810        35.53880        -0.20630
C         30.64301        37.66920         0.05325
C         29.41728        38.34500         0.17580
C         33.06111         6.07315         0.49469
C         31.90615         5.36236         0.27037
C         33.05922         7.49630         0.74609
C         31.67452         8.07465         1.00197
C         32.95743        10.35597         1.28133
C         31.65395         9.60103         1.12090
C         32.96237        11.86414         1.23320
C         31.66622        12.58040         1.00898
C         32.97970        14.83371         0.99332
C         31.72080        14.06343         0.70897
C         33.06484        16.31618         0.63987
C         31.85505        16.84134        -0.09318
C         33.18582        18.98273        -0.28347
C         31.93614        18.23654        -0.67723
C         33.13762        20.42728        -0.29646
C         31.94207        21.14893        -0.46677
C         33.19403        23.32043        -0.56653
C         31.95011        22.57757        -0.67990
C         33.21553        24.75470        -0.63076
C         31.99981        25.46938        -0.89692
C         33.18293        27.64762        -0.63843
C         31.92560        26.87499        -0.77270
C         33.06097        28.98097         0.06930
C         31.81046        29.74110        -0.33270
C         32.95228        31.92760         0.40964
C         31.76303        31.19296        -0.12072
C         33.05980        33.38634         0.12717
C         31.90437        34.07770        -0.20558
C         33.22737        36.28716         0.02679
C         31.91959        35.54329        -0.34642
C         33.08463        37.69920         0.42917
C         31.89829        38.34983         0.34016
C         34.21778         8.23536         0.82796
C         35.40376        10.41754         0.99149
C         34.24889         9.66760         1.03744
C         35.42723        11.87325         1.10634
C         34.23363        12.60021         1.06059
C         35.57103        14.77571         0.90622
C         34.27696        14.09590         1.39229
C         35.56787        16.05037         0.38411
C         34.31455        16.74980        -0.11877
C         35.47436        19.00258         0.63074
C         34.33755        18.27581        -0.02829
C         35.66654        20.39761         0.02714
C         34.41216        21.15757        -0.32992
C         35.52479        23.33120         0.22499
C         34.39257        22.63695        -0.24372
C         35.55068        24.75439         0.19240
C         34.43137        25.43954        -0.34853
C         35.71480        27.64660        -0.09582
C         34.48759        26.90063        -0.53341
C         35.61527        29.16108         0.17022
C         34.31090        29.81408         0.13966
C         35.46826        31.92223         0.87594
C         34.17625        31.12875         0.88250
C         35.46217        33.29355         0.80530
C         34.29011        34.07689         0.45888
C         34.33663        35.46108         0.49779
C         36.65196        12.57360         1.31028
C         38.01185        14.53204         1.71845
C         36.78134        13.98811         1.28939
C         38.40362        15.89579         1.45045
C         36.76087        16.89498         0.30890
C         38.03908        18.92072         0.95397
C         36.75833        18.22318         0.59521
C         38.02255        20.44182         0.91678
C         36.83598        21.15099         0.47168
C         37.95403        23.34643         0.89764
C         36.62667        22.56654         0.94806
C         37.78158        24.76804         1.45087
C         36.69689        25.50936         0.69350
C         37.93158        27.62882         1.07992
C         36.77636        26.88471         0.58881
C         37.89279        29.01773         1.19456
C         36.73572        29.80884         0.90096
C         36.67154        31.17293         1.13168
C         39.01368        16.82369         2.24717
C         40.19062        19.10046         2.24660
C         38.88841        18.34225         2.10881
C         40.23315        20.47197         2.11693
C         39.09226        21.21197         1.59631
C         40.23631        23.34963         1.99874
C         39.08211        22.58940         1.57201
C         40.25002        24.74171         1.90257
C         39.10211        25.50432         1.52463
C         39.10941        26.88347         1.44262
C         41.39907        21.24673         2.49155
C         41.39518        22.60965         2.43994
O         22.50267         7.64430        -2.07456
O         27.28901        12.32784         0.79378
O         13.79872        10.47656         2.49423
O         36.15514        28.59156        -1.09785
O         35.31296        20.57836        -1.37736
O         11.61683        14.07748        -0.67025
O         38.69660        19.54262        -0.15353
O         15.55982        23.95445        -2.39886
O         17.12288        34.13547         1.42117
O         29.57678        26.33050        -2.63667
O         24.26728        21.78747         0.50037
O         32.16902        12.38930         2.37160
O         17.38901        29.44898        -2.36351
O         25.63662        24.18223         0.44213
O          7.45550        22.09873         2.61304
O         12.36545        20.58754        -1.86381
O         27.78057         9.93701        -1.77966
O         27.76948        25.23962         0.13836
O         22.44087        25.30314         0.27279
O         13.96634        16.06994        -1.21852
O         11.33606        25.15559        -1.61622
O         10.66126        31.30598         2.63871
O         32.82938        36.04963        -1.36474
O         32.18894         9.92587         2.45716
O         13.40557        34.22349        -0.89849
O         38.00757        16.28740         0.14924
O         20.88858        16.12289        -2.40050
O         30.63776        14.16106        -1.57839
O         14.56512        29.40940        -1.57268
O         31.07598        31.99733        -2.27946
O         26.52293        33.23023         1.09452
O         31.88650        14.77292         1.97962
O         26.45828        35.70149         1.62575
O         20.66518        14.48146         0.97564
O         16.45878        16.83622         1.50386
O         29.16656        16.54136        -2.27787
O         18.17349        33.10741        -1.85156
O         31.77294        31.64617         1.28102
O         19.45469        16.76279         1.02463
O         13.13452        29.47945         1.91257
O         15.65336        26.98737         0.88975
O         26.19670        16.29434         0.08120
O         25.55668        28.32464        -2.82325
O          9.10962        26.43635        -1.10569
O         34.00672        27.45553        -1.80978
O         15.41619        32.98529        -1.70851
O         29.98400        18.48734         0.87259
O         24.62039        17.62485        -2.84327
O         25.65945        28.09321         0.48590
H         24.74334        27.87698         0.76125
O         15.07994        31.33891         1.50389
H         14.44510        30.82795         2.06945
O         34.13674        16.35852        -1.50935
H         34.95513        16.58941        -1.99863
O         17.24411        22.95782         0.62403
H         18.08832        22.54067         0.90024
O         13.88996        25.99663        -2.15008
H         13.93201        25.24725        -2.78505
O         22.05434        29.85950        -2.90940
H         21.63957        30.70362        -3.20430
O         38.09319        18.71659         3.28393
H         38.59668        18.47280         4.08864
O         12.99055        11.58867        -0.88660
H         12.62253        12.42810        -1.24883
O         32.79069        28.55663         1.46468
H         33.04349        29.31781         2.05321
O          7.32237        18.56967        -0.54667
H          7.96447        17.92034        -0.93925
O         38.31107        23.51258        -0.49250
H         38.44734        22.62587        -0.88914
O         25.95461        14.58991        -3.13030
H         25.74135        13.69311        -3.46267
O          5.62794        23.00486        -0.42443
H          4.82215        23.51491        -0.64896
O         13.35760        27.06572         1.92049
H         14.22569        27.34683         2.29087
O         21.91789        26.79637        -3.07559
H         21.98831        27.70620        -3.44882
O         21.79353        22.63849         0.72491
H         22.64535        22.29166         1.09144
O         31.93069        18.10293        -2.11945
H         32.65838        17.47965        -2.35210
O         27.88145        33.84394        -2.23325
H         28.62614        33.52105        -2.78683
O          8.87606        16.19285         2.65572
H          8.15072        15.82101         3.19883
O         28.08522        20.40987         1.13391
H         28.77751        19.77906         1.45620
O         35.07935        19.24321         2.00861
H         34.53010        18.47852         2.30285
O         13.61551        24.51741         1.20579
H         13.52771        25.38696         1.68081
O         21.78139        18.49136        -3.24136
H         21.23096        17.75265        -3.58590
O         23.21884        23.20813        -2.64936
H         22.41424        23.62793        -3.02394
O         20.55992        32.59033         1.08085
H         20.51936        33.26324         1.79317
O         31.22332         7.55208         2.27054
H         31.63264         8.11289         2.96891
O         15.61286         7.60551        -1.62033
H         14.78475         7.11870        -1.82014
O         28.20744        27.41325         0.56402
H         27.34239        27.67613         0.94932
O         31.24863        24.44920        -2.86234
H         31.01158        25.27714        -3.34433
O         33.94870        30.81713         2.31302
H         33.13007        31.29780         2.58122
O         34.35924        14.16052         2.83977
H         33.52066        13.75878         3.17208
O         33.14948        17.01983         1.90998
H         32.47383        16.61658         2.50269
O         12.48193        12.65611         2.60909
H         12.94736        11.79866         2.88773
O         29.56226        12.12702         1.99659
H         30.17145        12.02748         2.76286
O         22.98752        11.71043        -2.87669
H         23.65836        11.06909        -3.21718
O         31.29673         7.80690        -1.34658
H         30.60968         7.67972        -2.03422
O         30.08110        11.73690        -1.57495
H         30.52388        12.42767        -2.12156
O         36.17256        22.38792         2.31887
H         36.42949        23.18896         2.83903
O         37.34517        24.67553         2.84795
H         37.24552        25.58801         3.19300
O         17.32050         9.58537         2.02011
H         16.42420         9.66008         2.42047
O          9.23369        16.82043        -0.92352
H         10.01607        17.09911        -1.44781
O         13.50680        15.12840         2.26887
H         13.30283        14.30693         2.78620
O         25.26782        10.33592         0.89455
H         25.85657        11.00099         1.32782
O         20.80230        32.61382        -2.58320
H         19.92300        32.99210        -2.82004
O          8.24827        18.66530         2.70469
H          7.72447        19.39047         3.10198
O         27.37663        26.65326        -3.06607
H         27.10124        27.46271        -3.55698
O         17.95905        23.03402        -3.00693
H         17.09833        23.44905        -3.26026
O         24.74770         9.53163        -2.65328
H         24.15282         8.84535        -3.03452
H          4.81980        18.64438         1.40786
H          4.08382        20.61622         2.46543
H          3.95433        23.03204         2.10312
H          5.07121        25.22652         1.57066
H          7.52318        14.10212         1.16939
H          6.51545        16.67581         2.09574
H          6.31799        27.33121         1.55250
H          7.55361        29.46999         1.61816
H         10.01412         9.82775         0.84219
H          8.76377        11.93468         0.82217
H          8.73984        31.58422         1.70570
H         10.07359        33.84722         1.89419
H         12.49008         5.59536         0.81191
H         11.27230         7.68749         0.95607
H         11.25277        36.01423         1.75724
H         12.50089        38.08965         2.01057
H         14.57397         4.32008         0.49178
H         14.66730        39.25904         2.19527
H         17.04717         4.29681         0.26057
H         17.13866        39.22991         1.95983
H         19.48245         4.26863        -0.10345
H         19.63303        39.25382         1.62298
H         21.92875         4.24615        -0.08145
H         22.05049        39.30199         1.15001
H         24.44995         4.23357         0.07754
H         24.42879        39.39036         0.60238
H         26.93962         4.25228         0.10248
H         26.93065        39.41380         0.35990
H         29.40714         4.24918         0.20287
H         29.41370        39.43167         0.34862
H         34.02525         5.54172         0.52282
H         31.95436         4.26604         0.17978
H         33.97821        38.22854         0.79349
H         31.84250        39.41453         0.61325
H         35.18244         7.72995         0.65851
H         36.36738         9.90326         0.85268
H         36.41254        33.83641         0.92912
H         35.21639        35.95955         0.93291
H         37.55875        11.97899         1.49853
H         38.69765        13.86717         2.26767
H         38.77702        29.53339         1.60086
H         37.56321        31.70745         1.49583
H         39.30785        16.49872         3.25936
H         41.07423        18.56853         2.63254
H         41.18207        25.28139         2.13310
H         40.04022        27.43801         1.63838
H         42.29209        20.70902         2.84286
H         42.28996        23.17427         2.74152
