         270
 CSIRO Nanostructure Databank - Neutral Graphene Oxide Data Set
C        -11.39171         0.60015         0.32074
C        -10.10413         1.39249         0.43547
C         -9.06112         0.68073        -0.47149
C         -7.73380         1.43583        -0.61195
C         -6.47892         0.72261        -1.05431
C         -5.13275         1.33207        -0.83089
C         -3.94603         0.70335        -1.16615
C         -2.65694         1.39570        -1.15095
C         -1.40286         0.66014        -1.36981
C         -0.12691         1.38598        -1.27918
C          1.14781         0.72013        -1.59024
C          2.35361         1.37800        -1.42059
C          3.62825         0.79578        -1.92021
C          4.91843         1.51881        -1.68140
C          6.17721         0.72313        -1.59657
C          7.40068         1.44033        -1.12469
C          8.67325         0.68829        -0.92627
C          9.98762         1.33840        -0.48799
C         11.17276         0.70576        -1.17425
C        -10.12600         2.86596         0.12006
C         -8.92312         3.55790         0.09663
C         -7.62560         2.76315         0.11779
C         -6.42446         3.51645        -0.40173
C         -5.13136         2.74172        -0.40597
C         -3.84473         3.50294        -0.54653
C         -2.61952         2.77558        -0.94494
C         -1.36527         3.49961        -0.89531
C         -0.13022         2.74056        -0.98093
C          1.16407         3.52197        -0.96309
C          2.42652         2.70058        -0.79685
C          3.61006         3.30125        -0.40214
C          4.89674         2.86271        -1.00985
C          6.17866         3.62735        -0.87014
C          7.50955         2.95556        -1.32215
C          8.73854         3.54099        -0.62219
C          9.89634         2.84439        -0.47675
C         -8.86001         4.97133         0.21482
C         -7.62141         5.66753         0.33614
C         -6.40234         4.99387        -0.19065
C         -5.09753         5.67571        -0.04754
C         -3.90705         4.99472        -0.64685
C         -2.58121         5.69273        -0.64617
C         -1.35327         4.88221        -0.69877
C         -0.14106         5.56965        -0.20169
C          1.10624         4.77118        -0.10922
C          2.40018         5.44748         0.26978
C          3.64844         4.62827         0.28649
C          4.96533         5.30193         0.63191
C          6.25801         4.73393         0.14047
C          7.51773         5.52266         0.18017
C          8.67573         4.94514        -0.22295
C         -7.50972         6.91381         0.92065
C         -6.16922         7.39899         1.41174
C         -5.01920         6.87557         0.57716
C         -3.72484         7.59321         0.68550
C         -2.50155         6.99835         0.08961
C         -1.31378         7.91476        -0.15599
C         -0.03087         7.06777        -0.25402
C          1.28994         7.73792        -0.04392
C          2.60096         6.95202         0.10522
C          3.53151         7.46281         1.23377
C          4.98806         6.74881         1.22013
C          6.10967         7.57468         0.54146
C          7.47877         6.90607         0.79331
C         -6.06833         8.87707         1.70586
C         -4.95387         9.60406         1.55389
C         -3.73658         9.11668         0.80433
C         -2.39173         9.56600         1.35431
C         -1.24784         8.99681         0.91990
C          0.11847         9.37127         1.47022
C          1.21805         9.21708         0.39019
C          2.56414         9.74337         0.81827
C          3.64836         8.99006         1.11704
C          4.94478         9.61763         1.36271
C          6.09928         8.98262         1.09547
C        -11.41206        -0.72800         0.11618
C        -10.20622        -1.57571        -0.26659
C         -8.88976        -0.78258         0.00234
C         -7.75116        -1.49990        -0.69142
C         -6.55252        -0.77193        -1.22362
C         -5.24645        -1.51144        -1.45357
C         -3.97700        -0.70557        -1.64460
C         -2.67194        -1.45268        -1.76428
C         -1.40148        -0.70933        -1.56557
C         -0.10309        -1.44787        -1.62935
C          1.07117        -0.66256        -2.25781
C          2.39700        -1.45951        -2.25019
C          3.73069        -0.68321        -2.30127
C          4.87016        -1.37775        -1.57958
C          6.13215        -0.64988        -1.51840
C          7.40780        -1.43303        -1.51896
C          8.70493        -0.70376        -1.46803
C         10.02258        -1.54567        -1.27425
C         11.21688        -0.61861        -1.37596
C        -10.15152        -2.96274         0.41879
C         -8.80376        -3.67637         0.23566
C         -7.58836        -2.87292        -0.11223
C         -6.26875        -3.54196        -0.22574
C         -5.13492        -2.94294        -1.01121
C         -3.81397        -3.63651        -0.96291
C         -2.68174        -2.96996        -1.67276
C         -1.38295        -3.72095        -1.70219
C         -0.10143        -2.94127        -1.58749
C          1.11772        -3.76960        -1.96835
C          2.41269        -2.94610        -1.93810
C          3.57231        -3.46202        -1.15019
C          4.80111        -2.67840        -1.14582
C          6.03617        -3.36844        -0.66309
C          7.39657        -2.84170        -0.98157
C          8.66104        -3.35271        -0.13566
C          9.68241        -2.25580        -0.01382
C         -8.67395        -4.98264         0.57056
C         -7.31706        -5.57564         0.92625
C         -6.22023        -5.04118        -0.05713
C         -4.82637        -5.43756         0.40301
C         -3.68774        -4.85537        -0.35108
C         -2.54372        -5.77764        -0.61233
C         -1.36206        -5.19981        -1.34973
C         -0.02319        -5.93386        -1.35169
C          1.15033        -5.02214        -1.11430
C          2.23085        -5.40164        -0.35921
C          3.43243        -4.56845        -0.32691
C          4.48159        -4.87081         0.69046
C          5.83155        -4.23755         0.53229
C          7.03316        -4.78111         1.21550
C          8.21918        -3.84531         1.25075
C         -7.11523        -7.06667         0.87263
C         -6.16707        -7.71332         1.73299
C         -4.60534        -6.69052         1.14971
C         -3.40872        -7.48919         1.04096
C         -2.41048        -7.07556         0.12973
C         -1.21863        -7.81558         0.02424
C          0.00299        -7.31404        -0.70091
C          1.24279        -7.62371         0.09814
C          2.22187        -6.69613         0.32760
C          3.25256        -7.08945         1.37825
C          4.41932        -6.11318         1.53878
C          5.69367        -6.65212         2.12469
C          6.97041        -5.92432         1.92948
C         -5.80442        -9.13108         1.42163
C         -4.56134        -9.62358         1.48231
C         -3.33597        -8.78203         1.82905
C         -2.07682        -9.54648         1.53505
C         -1.10024        -9.08468         0.70422
C          0.16039        -9.89299         0.47750
C          1.37030        -8.99343         0.60025
C          2.57027        -9.45165         1.02782
C          3.75760        -8.51731         1.06579
C          4.82325        -8.95595         2.04868
C          5.74215        -8.09200         2.49969
O         -7.28907         1.50694        -1.99817
O          4.84599        -3.66489         1.45369
O         -6.58014        -2.81240         1.00069
O          4.72872        -5.86733         2.94432
O          5.29672         3.93539        -1.96939
O          0.44843         8.48442         2.53021
H         -0.29835         8.43026         3.15949
O          2.56583        -2.45768        -3.30091
O         -6.63124         4.38781        -1.52813
O          0.15283        -6.58778        -2.68512
O          0.13194        -2.18162        -0.36060
O         -7.61597        -1.26170        -2.10630
O          8.14473        -1.03929        -2.75803
O         -7.30277         2.37699         1.53619
O          7.71331         3.15965        -2.68260
O          5.74535         4.36978         1.46207
O         -3.40642         5.60913        -1.86308
O         -3.38010        -0.93155        -2.94987
O         -2.15941        -3.52912        -2.91637
O         -4.32497         3.03593         0.79097
O          2.82419         4.80776         1.49926
O         -2.36946        -5.94858        -2.06569
O          6.83314        -3.90486        -1.78072
O         -2.76231         6.86529         1.52615
O          7.72337         0.87457         0.19808
O          5.96744         7.62457        -0.89116
H          5.01198         7.71113        -1.12644
O          2.95413         7.20278         2.45509
O          0.72032        -0.43404        -3.63554
H          1.10171        -1.16828        -4.16824
O          0.77458        10.00684        -0.73890
H          1.46394         9.95510        -1.43407
O          0.10571        -7.93754        -2.06049
O          0.22804         4.84732         1.04289
O          0.78076         7.51968        -1.39791
O         -6.14258        -7.43182         3.06582
H         -6.44927        -6.49890         3.19111
O         -4.66524        -5.49596         1.89370
O         -1.52904         8.57100        -1.42299
H         -0.72256         9.12492        -1.58205
O          4.14344        -0.74396        -3.68611
H          4.52217         0.13870        -3.92199
O        -10.31564        -1.87831        -1.66677
H        -10.26974        -1.01911        -2.15305
O          0.86407        -4.18967        -3.32017
H          1.63880        -4.68609        -3.65564
O          0.13489       -10.50188        -0.82233
H          0.07276        -9.79325        -1.50115
O          5.36418         6.66783         2.58659
H          4.50185         6.62900         3.08687
O         -7.08956        -5.10729         2.26780
H         -6.95949        -4.12599         2.22157
O          8.51062         7.72238         0.24413
H          8.25571         7.91028        -0.68473
O         -3.39986        -8.50278         3.25232
H         -2.63370        -7.93887         3.48516
O          3.30228         7.13817        -1.14818
H          2.63823         7.06117        -1.87384
O         -6.47746        -5.64035        -1.33866
H         -5.97371        -5.16179        -2.03216
O          4.24190         1.61818        -2.98017
O          1.30912         4.07258        -2.31929
H          1.48339         3.32988        -2.93782
O         -5.43772        -2.59240        -2.40257
O         -9.66891         0.68001        -1.78008
H         -8.93444         0.76614        -2.43794
O         -8.54450        -0.85399         1.39873
H         -9.10987        -0.20541         1.89783
O          2.53553        -7.13337         2.62832
H          3.12570        -6.72706         3.30878
O         -3.88973         9.65470        -0.53404
H         -3.08894         9.39906        -1.06253
O         -6.02771         6.75704         2.72985
H         -6.20069         5.79584         2.62565
O         -9.77703         1.34905         1.86292
H         -8.99251         1.92962         2.03450
O         10.12906        -2.49104        -2.34856
H          9.53407        -2.18326        -3.07666
O          9.20736        -4.48092        -0.82169
H          9.64263        -4.13913        -1.64118
O         -6.71568         3.52496         2.20751
H         -5.73858         3.34057         2.13036
O          4.36636        -8.46453        -0.25248
H          4.51716        -9.38192        -0.56168
O         10.16898         0.95632         0.91109
H          9.33217         1.18902         1.37516
O          7.82318        -2.68404         1.99175
H          7.25883        -2.95933         2.74407
O        -10.38256        -2.84130         1.82381
H         -9.65641        -2.28336         2.18640
H         12.12162        -1.07802        -1.80237
H         12.06672         1.32080        -1.35481
H         10.76584         3.36222        -0.03945
H          9.61856         5.50654        -0.12811
H          7.65303         6.82503         1.89642
H          7.06502         9.49349         1.22865
H          4.94643        10.66408         1.70715
H          2.67889        10.83891         0.77077
H          0.09535        10.43813         1.83733
H         -2.35840        10.37885         2.09820
H         -4.95593        10.66302         1.85702
H         -6.94303         9.32634         2.20224
H         -8.41452         7.40896         1.30688
H         -9.79645         5.52133         0.39322
H        -11.07546         3.42269         0.13728
H        -12.33329         1.13242         0.52960
H        -12.38471        -1.24544         0.10295
H        -10.96974        -3.60006         0.00103
H         -9.56960        -5.54681         0.87400
H         -7.22342        -7.50047        -0.13572
H         -6.63358        -9.79780         1.13518
H         -4.39168       -10.68463         1.24217
H         -1.94368       -10.51194         2.04687
H          0.22218       -10.72216         1.22488
H          2.69894       -10.50720         1.31463
H          4.86995       -10.01806         2.33708
H          6.55147        -8.42211         3.16952
H          7.86648        -6.30661         2.44374
H          9.08813        -4.35256         1.75573
H          9.77582        -1.71310         0.94200
