         732
 CSIRO Nanostructure Databank - Neutral Graphene Oxide Data Set
C         23.03561        24.51445        -1.42095
C         21.86681        25.23369        -1.64445
C         23.06718        27.33258        -1.33973
C         21.87457        26.62736        -1.58607
C         23.07827        28.77980        -1.19420
C         21.86670        29.50965        -1.16259
C         23.05362        31.59864        -0.75189
C         21.85141        30.87097        -0.93977
C         23.03136        33.01094        -0.47115
C         21.80979        33.73782        -0.36574
C         23.00093        35.85215        -0.01890
C         21.79609        35.09735        -0.17823
C         22.96478        37.27017         0.05091
C         21.78660        38.04126        -0.22971
C         23.07103        40.20297        -0.33875
C         21.80046        39.39797        -0.31711
C         22.93598        41.61357         0.20078
C         21.76130        42.31317         0.06938
C         22.88281        44.49055         0.12702
C         21.72744        43.73334         0.05454
C         22.92056        45.84092        -0.41920
C         21.77382        46.57301        -0.62861
C         22.97480        48.55788        -1.38502
C         21.80695        47.92769        -1.08601
C         25.49485        23.02645        -0.78387
C         25.47017        24.43538        -0.89299
C         24.25672        25.17892        -1.17874
C         25.53460        27.31281        -1.06388
C         24.28359        26.60611        -1.18217
C         25.55669        28.76452        -1.05383
C         24.30497        29.47979        -1.03197
C         25.52591        31.62456        -0.71547
C         24.29469        30.89702        -0.83375
C         25.48559        33.02204        -0.50403
C         24.25606        33.71908        -0.31572
C         25.48309        35.82065         0.15678
C         24.25066        35.13349        -0.03521
C         25.48401        37.23160         0.57152
C         24.15502        38.02067         0.46068
C         25.43311        40.16128         0.52544
C         24.23917        39.47009         0.27266
C         25.42773        41.58357         0.69258
C         24.13283        42.30346         0.69438
C         25.38213        44.72586         0.74479
C         24.10815        43.87009         0.64849
C         25.47787        45.84591        -0.27365
C         24.22753        46.38081        -0.84764
C         25.52904        48.56708        -1.29725
C         24.25117        47.83089        -1.39074
C         25.56285        49.95210        -1.57966
C         27.87061        23.04189        -0.23037
C         26.66636        22.34951        -0.48081
C         27.87577        24.43635        -0.36179
C         26.68566        25.14668        -0.69865
C         28.01822        27.23549        -0.96649
C         26.71314        26.57254        -0.87942
C         28.05873        28.80384        -1.05073
C         26.76523        29.48641        -0.94043
C         28.02065        31.57546        -0.58092
C         26.78167        30.90745        -0.75960
C         28.06063        33.03992        -0.59067
C         26.72530        33.80207        -0.55432
C         27.96248        35.85464         0.15481
C         26.72129        35.18410        -0.06019
C         27.94627        37.30529         0.32622
C         26.72353        38.00807         0.44900
C         27.91645        40.13662         0.54916
C         26.69790        39.41991         0.57662
C         27.97244        41.55642         1.06441
C         26.63717        42.29755         1.03696
C         27.91632        44.50429         0.49581
C         26.66601        43.89333         0.88236
C         27.91952        46.00597         0.25936
C         26.65855        46.53455        -0.40240
C         27.93759        48.65049        -0.83956
C         26.71303        47.90080        -0.91471
C         27.94437        50.04582        -1.10663
C         26.73316        50.67571        -1.48256
C         30.12314        20.44481         1.46596
C         28.99589        21.10575         1.01120
C         30.40156        23.03234         0.27078
C         29.13078        22.21048        -0.01486
C         30.30086        24.50461         0.48098
C         29.07406        25.22037         0.01830
C         30.48929        27.28267        -0.54419
C         29.19382        26.60158        -0.42617
C         30.51320        28.75757        -0.50715
C         29.29991        29.47063        -0.62235
C         30.47930        31.58052        -0.14969
C         29.25806        30.87762        -0.42459
C         30.44536        32.98976         0.07463
C         29.25923        33.72986        -0.08699
C         30.43878        35.84952         0.45151
C         29.18012        35.13066         0.17683
C         30.43478        37.34096         0.39778
C         29.14384        38.04992         0.27545
C         30.37781        40.23076         0.01034
C         29.12887        39.45389         0.36064
C         30.38604        41.66598         0.46833
C         29.16216        42.35981         0.57097
C         30.39760        44.46665         0.30100
C         29.14251        43.77859         0.49563
C         30.43021        45.85236        -0.03111
C         29.14944        46.47658        -0.52973
C         30.37743        48.68587        -0.53701
C         29.18780        47.98587        -0.58508
C         30.38327        50.12354        -0.65194
C         29.17745        50.79663        -0.99371
C         30.41869        52.88643        -1.12918
C         29.22701        52.19120        -1.22793
C         32.83158        19.20256         0.31904
C         32.63765        20.09214         1.54436
C         31.42455        20.95704         1.30326
C         32.74423        23.12180         1.44853
C         31.58757        22.34577         0.87619
C         32.82863        24.58083         1.11528
C         31.59424        25.26634         0.61567
C         32.98318        27.31695         0.21379
C         31.75590        26.55928        -0.10155
C         32.97757        28.70885         0.03670
C         31.73365        29.43585        -0.21028
C         32.96684        31.56106         0.05948
C         31.71485        30.84850        -0.07515
C         32.95450        32.95259         0.22407
C         31.68889        33.67161         0.59860
C         32.91311        35.84463         0.21406
C         31.72295        35.14110         0.27168
C         32.94159        37.29551         0.19106
C         31.67131        38.03201        -0.13138
C         32.85114        40.15711         0.43591
C         31.67997        39.49729         0.22615
C         32.86333        41.59894         0.89286
C         31.60593        42.34891         0.54293
C         32.87608        44.46177         0.38209
C         31.62386        43.76238         0.45617
C         32.87738        45.85766         0.14417
C         31.63687        46.53153        -0.10437
C         32.89038        48.69379        -0.14234
C         31.68970        47.93966        -0.64234
C         32.75674        50.15716         0.20072
C         31.58662        50.86458        -0.46533
C         32.90748        53.03580        -0.71258
C         31.60630        52.24749        -0.70751
C         32.83826        54.51588        -0.42477
C         35.09949        18.63627         1.15632
C         33.98878        18.56629         0.11512
C         35.23098        20.10233         1.61961
C         33.95920        20.86789         1.78775
C         35.31307        23.05792         1.49148
C         34.01387        22.37481         1.72660
C         35.33585        24.46762         1.17403
C         34.14546        25.21008         0.90593
C         35.41971        27.30879         0.65417
C         34.17780        26.60154         0.59644
C         35.43791        28.71875         0.41998
C         34.21614        29.42331         0.16375
C         35.45574        31.54949        -0.03374
C         34.22048        30.84280         0.03678
C         35.37033        32.98452        -0.15360
C         34.15998        33.69056         0.11708
C         35.38323        35.84689         0.08752
C         34.17254        35.12359         0.16000
C         35.39517        37.28920         0.25678
C         34.12743        37.99896         0.32142
C         35.31070        40.16656         0.52782
C         34.12489        39.45141         0.42041
C         35.34518        41.61890         0.53367
C         34.13821        42.33214         0.55221
C         35.34967        44.46824         0.36587
C         34.12085        43.75054         0.44357
C         35.34070        45.89949         0.29060
C         34.11358        46.57966         0.12578
C         35.32070        48.73127         0.38922
C         34.08874        48.02883         0.09021
C         35.26021        50.18719         0.58885
C         34.09037        50.88291        -0.08927
C         35.26890        53.16366         0.20249
C         33.94834        52.39810         0.23136
C         35.28856        54.52536        -0.36336
C         34.01176        55.20348        -0.41132
C         37.52775        16.21048        -0.53558
C         36.35742        16.83348        -0.00737
C         37.68738        18.63888         0.99565
C         36.39181        18.03701         0.64223
C         37.73704        20.08062         1.42457
C         36.49136        20.86538         1.43576
C         37.80762        22.96299         1.41037
C         36.51993        22.27113         1.46856
C         37.78409        24.44149         1.57294
C         36.57268        25.18149         1.16052
C         37.86344        27.30923         1.12161
C         36.62881        26.58806         0.97541
C         37.88355        28.74510         0.93100
C         36.66837        29.44788         0.51097
C         37.94321        31.54720         0.43085
C         36.69357        30.83480         0.21271
C         38.24782        32.76514        -0.14086
C         36.46401        33.79809        -0.52660
C         37.89706        35.85384        -0.35691
C         36.58693        35.15184        -0.21258
C         37.86671        37.33994        -0.07994
C         36.58559        37.98582         0.27671
C         37.86832        40.19330         0.59939
C         36.58113        39.42269         0.62715
C         37.84132        41.66031         0.44267
C         36.59714        42.33807         0.45885
C         37.82157        44.49325         0.37893
C         36.58888        43.76601         0.40053
C         37.80709        45.92803         0.40786
C         36.57586        46.62733         0.37938
C         37.80878        48.79686         0.54928
C         36.55017        48.06288         0.47838
C         37.82107        50.20973         0.52063
C         36.56368        50.95303         0.67753
C         37.81443        53.08779        -0.01133
C         36.56759        52.43556         0.42536
C         37.78955        54.44683        -0.38517
C         36.53283        55.15629        -0.56587
C         37.78693        57.14459        -1.24530
C         36.58898        56.50664        -1.02386
C         39.92598        14.88695        -1.53786
C         39.97110        16.18265        -1.00265
C         38.77316        16.78918        -0.43978
C         40.15569        18.83833         0.18211
C         38.93664        18.01125         0.37137
C         40.20645        20.13955         0.64066
C         39.04805        20.81871         1.26025
C         40.30059        22.99144         1.21341
C         39.00956        22.30157         1.25042
C         40.38079        24.37686         1.84561
C         39.07411        25.17873         1.74571
C         40.28564        27.33783         1.63687
C         39.09738        26.64215         1.44646
C         40.25563        28.82510         1.88537
C         39.03571        29.45821         1.25676
C         40.28427        31.71430         1.44963
C         39.00111        30.92598         1.24941
C         40.33021        33.11934         0.97901
C         39.28087        33.67135         0.28560
C         40.34405        35.97340         0.32361
C         39.26921        35.09600        -0.29843
C         40.35718        37.36002         0.22222
C         39.12328        38.09717         0.14251
C         40.34221        40.23138         0.30724
C         39.12197        39.47212         0.30142
C         40.32038        41.64571         0.33058
C         39.06380        42.36283         0.35916
C         40.29444        44.52266         0.37770
C         39.05901        43.79294         0.35478
C         40.26705        45.92585         0.48747
C         39.04702        46.64923         0.49008
C         40.29300        48.81314         0.53457
C         39.05100        48.08322         0.53477
C         40.27377        50.24742         0.39171
C         39.03708        50.93874         0.32453
C         40.26616        53.06344        -0.05695
C         39.03297        52.35858         0.07428
C         40.26809        54.45603        -0.37179
C         39.03522        55.13256        -0.60902
C         40.28191        57.19507        -1.23344
C         39.03188        56.49532        -1.03264
C         40.30815        58.53285        -1.67953
C         42.29996        14.92492        -1.96964
C         41.08101        14.26115        -2.01323
C         42.38880        16.23735        -1.45965
C         41.21812        16.88944        -0.96255
C         42.51006        18.98350        -0.62456
C         41.30246        18.23026        -0.45704
C         42.61560        20.32339        -0.11295
C         41.53964        20.81755         0.82347
C         42.80675        23.00874         1.15519
C         41.46510        22.32896         0.94275
C         42.73903        24.52350         1.04647
C         41.58751        25.16795         1.40055
C         42.85776        27.38749         1.62459
C         41.56118        26.61269         1.74494
C         42.81424        28.86386         1.51430
C         41.56211        29.57423         1.57626
C         42.85292        31.73772         1.71613
C         41.56169        30.96042         1.52618
C         42.84965        33.15871         1.19593
C         41.57255        33.88654         1.22057
C         42.84532        35.99489         0.58150
C         41.56129        35.34097         0.86090
C         42.83878        37.41758         0.33541
C         41.59726        38.10826         0.32117
C         42.80896        40.25565         0.19231
C         41.58399        39.52450         0.26823
C         42.79974        41.68149         0.16451
C         41.55203        42.37772         0.27181
C         42.78451        44.49118         0.16799
C         41.55100        43.79654         0.29655
C         42.73331        45.96815         0.10656
C         41.56024        46.64193         0.78089
C         42.77382        48.83074         0.55689
C         41.53631        48.13357         0.56189
C         42.76466        50.31219         0.84941
C         41.49597        50.99391         0.38874
C         42.74376        53.17409         0.46120
C         41.49424        52.36693         0.18665
C         42.74446        54.52966        -0.20621
C         41.52401        55.16592        -0.50366
C         42.74483        57.24216        -1.09772
C         41.51697        56.53212        -0.95347
C         42.71887        58.58413        -1.54148
C         41.51440        59.21309        -1.83471
C         44.86572        16.31986        -1.82752
C         43.64223        16.96079        -1.49085
C         44.85969        19.11219        -1.50081
C         43.64447        18.34329        -1.20358
C         44.91779        20.57228        -1.03532
C         43.78335        21.08863        -0.24098
C         45.10084        23.12701         0.13281
C         43.91784        22.39305         0.32491
C         45.11842        24.54741         0.39217
C         43.97883        25.24612         0.79881
C         45.20073        27.38298         0.86819
C         44.04164        26.67420         1.06144
C         45.34337        28.81079         1.32228
C         44.02710        29.56465         1.32386
C         45.31314        31.66875         1.09089
C         44.07339        30.96371         1.30485
C         45.30634        33.13307         0.95364
C         44.02073        33.82963         0.90194
C         45.24822        35.93604         0.19545
C         44.00622        35.25045         0.59244
C         45.29884        37.40845         0.19963
C         44.05378        38.13191         0.21004
C         45.25644        40.28165        -0.07376
C         44.04165        39.55471         0.11950
C         45.25635        41.67478        -0.12397
C         44.02735        42.39484         0.01655
C         45.27423        44.57207        -0.04444
C         44.01320        43.82749         0.00257
C         45.28427        45.98637         0.07152
C         44.01619        46.73225         0.04237
C         45.25305        48.86050         0.38606
C         43.99988        48.16622         0.39507
C         45.24999        50.29102         0.36309
C         44.02382        51.02065         0.40954
C         45.25069        53.11602         0.08721
C         44.02436        52.40031         0.25662
C         45.23562        54.53433        -0.16428
C         43.98496        55.21288        -0.38165
C         45.23323        57.25234        -0.90563
C         43.99208        56.57416        -0.80065
C         46.06956        17.00837        -1.87845
C         47.36092        19.13640        -1.74596
C         46.12714        18.40696        -1.72960
C         47.42350        20.49573        -1.29297
C         46.24675        21.18300        -0.86736
C         47.57231        23.18120        -0.36047
C         46.30349        22.49307        -0.36864
C         47.62704        24.56100        -0.08064
C         46.34422        25.27803         0.03302
C         47.71116        27.41886         0.39383
C         46.38740        26.76048         0.26407
C         47.73618        28.80415         0.54968
C         46.40399        29.51785         0.46294
C         47.72013        31.69415         0.36395
C         46.47155        30.97874         0.79004
C         47.78230        33.06662         1.02298
C         46.49211        33.79683         0.76742
C         47.79953        35.94783         0.37640
C         46.54631        35.18194         0.28110
C         47.77830        37.35408         0.24018
C         46.51471        38.06236         0.12206
C         47.80535        40.25468        -0.11766
C         46.51427        39.51082        -0.18453
C         47.78808        41.72953        -0.05068
C         46.52314        42.42405        -0.49668
C         47.73540        44.57745         0.00952
C         46.50785        43.88323        -0.11526
C         47.73609        46.00035         0.15052
C         46.49634        46.70489         0.18985
C         47.72286        48.86098         0.36209
C         46.48523        48.14685         0.30191
C         47.70229        50.27283         0.39159
C         46.48216        50.99605         0.29104
C         47.72811        53.14849         0.12018
C         46.48223        52.42307         0.16951
C         47.71819        54.55402        -0.08364
C         46.45840        55.23873        -0.28731
C         46.42450        56.61475        -0.63834
C         49.78604        19.14359        -2.06457
C         48.56939        18.50272        -2.14521
C         49.89090        20.46763        -1.56320
C         48.69853        21.14459        -1.18428
C         50.02273        23.17876        -0.65577
C         48.77059        22.49658        -0.71954
C         50.07729        24.54915        -0.26841
C         48.86144        25.25366        -0.02751
C         50.16292        27.33920         0.35895
C         48.91064        26.67008         0.24826
C         50.17730        28.73483         0.61084
C         48.97817        29.48894         0.63411
C         50.18104        31.64912         0.66763
C         49.00278        30.93787         0.64387
C         50.22475        33.10569         0.57970
C         49.03329        33.82091         0.64305
C         50.25689        35.95277         0.43068
C         49.02350        35.24476         0.51530
C         50.23684        37.37881         0.34979
C         49.00829        38.06532         0.30038
C         50.26025        40.26324         0.23544
C         48.97233        39.55234         0.53454
C         50.23569        41.66769         0.14630
C         48.98215        42.40854         0.07430
C         50.20501        44.57239         0.04916
C         48.99790        43.86785         0.03849
C         50.20670        46.01867         0.01392
C         48.97247        46.72188         0.16171
C         50.22399        48.82975         0.26784
C         48.98554        48.14371         0.28621
C         50.26955        50.26933         0.55424
C         48.94284        51.03046         0.59926
C         50.19544        53.16035         0.25657
C         48.96322        52.47101         0.31210
C         50.15378        54.56836         0.07665
C         48.95786        55.24045        -0.07991
C         52.37869        20.47803        -1.78889
C         51.16693        21.13698        -1.45112
C         52.48954        23.16103        -0.92233
C         51.22973        22.48562        -1.00667
C         52.54665        24.52607        -0.48985
C         51.34228        25.23293        -0.17630
C         52.67437        27.26453         0.29121
C         51.40055        26.60767         0.17717
C         52.73076        28.70362         0.48659
C         51.46627        29.42430         0.77750
C         52.67804        31.64842         0.30986
C         51.46024        30.93064         0.78984
C         52.71743        33.11538         0.44073
C         51.48382        33.81145         0.49821
C         52.73457        35.93849         0.40423
C         51.48983        35.23468         0.45651
C         52.72723        37.36857         0.32382
C         51.49008        38.09986         0.28577
C         52.70862        40.25750        -0.02009
C         51.46009        39.51175         0.15613
C         52.67084        41.70886         0.16592
C         51.47690        42.39789         0.14061
C         52.66634        44.54194        -0.06453
C         51.47778        43.86392         0.07831
C         52.66016        45.98551        -0.36161
C         51.41077        46.74034        -0.15996
C         52.68822        48.90163        -0.07179
C         51.44956        48.15591        -0.01559
C         52.71355        50.29927         0.05972
C         51.49495        51.03266         0.27536
C         52.70940        53.13233         0.12045
C         51.46298        52.43296         0.26027
C         53.59238        21.12454        -1.71357
C         54.94681        23.16808        -1.23591
C         53.68544        22.47617        -1.28792
C         54.99316        24.48559        -0.77634
C         53.80739        25.18635        -0.38863
C         55.17072        27.19961         0.31440
C         53.86613        26.54226         0.06243
C         55.19785        28.71100         0.46470
C         53.91406        29.41157         0.41808
C         55.22757        31.62745         0.30169
C         53.95357        30.87836         0.19871
C         55.20618        33.04713         0.33805
C         53.96010        33.78534         0.38754
C         55.21214        35.92767         0.34407
C         53.96718        35.22003         0.40151
C         55.19503        37.34893         0.27509
C         53.98099        38.04244         0.26936
C         55.21089        40.24433         0.63103
C         54.01339        39.50686         0.07623
C         55.20580        41.68689         0.22200
C         53.93972        42.46176         0.43290
C         55.22437        44.54486         0.00802
C         53.95723        43.78061        -0.32715
C         55.15089        46.00562         0.12326
C         53.96096        46.72316        -0.44363
C         55.23485        48.90943         0.00417
C         53.98085        48.25162        -0.55218
C         55.20534        50.35864         0.02795
C         53.96998        51.03401        -0.00101
C         53.89982        52.46552         0.02595
C         57.31943        23.21263        -1.90917
C         56.17839        22.52463        -1.68283
C         57.37227        24.66783        -1.64214
C         56.32036        25.15350        -0.69186
C         57.64074        27.37100        -0.42412
C         56.43767        26.53403        -0.13863
C         57.63680        28.75289        -0.02290
C         56.45305        29.46638         0.22006
C         57.70003        31.63287         0.27136
C         56.44690        30.90047         0.28039
C         57.68389        33.07575         0.34274
C         56.45132        33.78000         0.35332
C         57.70291        35.93645         0.39226
C         56.45062        35.21130         0.34121
C         57.72391        37.35841         0.30903
C         56.46649        38.08210        -0.09063
C         57.68528        40.22525         0.28755
C         56.49996        39.54097         0.30104
C         57.72246        41.69146         0.54711
C         56.41768        42.43888         0.47751
C         57.67846        44.61598         0.33593
C         56.40991        43.90355         0.28094
C         57.69103        46.01430         0.33980
C         56.41952        46.75900         0.41537
C         57.67338        48.91807         0.68783
C         56.40293        48.23189         0.24417
C         57.63264        50.39386         0.39986
C         56.47224        51.04661         0.15623
C         59.84259        24.88748        -2.33641
C         58.62102        25.50029        -1.79218
C         59.98717        27.51591        -1.24466
C         58.74435        26.80394        -1.07854
C         60.14205        28.85271        -0.62243
C         58.91177        29.48381         0.03779
C         60.25050        31.60815         0.35525
C         58.90420        30.93649         0.21876
C         60.16953        33.11146         0.36210
C         58.93119        33.79920         0.41005
C         60.18799        35.96021         0.87186
C         58.92109        35.22145         0.50095
C         60.19477        37.41940         0.46803
C         58.95219        38.09282         0.30223
C         60.15906        40.25651         0.10687
C         58.94833        39.52204         0.16687
C         60.14214        41.72753         0.00514
C         58.95440        42.44743         0.23485
C         60.11975        44.58894        -0.08740
C         58.91936        43.87426         0.18859
C         60.11407        46.04188        -0.13319
C         58.90935        46.75435         0.13798
C         60.08574        48.86500        -0.12064
C         58.91143        48.18250         0.17741
C         61.00190        25.59534        -2.39301
C         61.06482        26.93040        -1.88903
C         61.14546        29.81063        -1.14088
C         61.18382        31.08827        -0.72848
C         61.39255        33.84413         0.35796
C         61.42714        35.19987         0.50271
C         61.37780        38.15823         0.40252
C         61.36817        39.54197         0.19308
C         61.31647        42.46274        -0.28651
C         61.30263        43.84532        -0.32600
C         61.28368        46.78127        -0.43108
C         61.26093        48.16555        -0.44543
O         33.13604        22.88745         2.82220
O         30.51321        36.67978         1.69971
O         31.51236        22.64663        -0.60653
O         43.16624        46.49383        -1.17421
O         28.22475        27.96644        -2.22428
O         59.97850        28.80446         0.83123
O         39.32573        31.52560         2.57478
O         49.64363        50.64498         1.83274
O         29.35983        24.94561         1.49657
O         23.88838        43.13197         1.88458
O         27.48864        33.63886        -1.80150
O         24.69620        37.54506         1.74901
O         24.29584        46.66910        -2.27849
O         38.57231        17.78949         1.77746
O         26.59802        43.20675         2.18482
O         46.13569        26.23556        -1.09525
O         34.65747        20.35187         2.96254
O         31.40108        26.58303        -1.51209
O         37.86750        36.79051        -1.48751
O         51.60099        30.19592         2.04389
O         38.62504        20.29341         2.57547
O         35.75630        50.63104         1.87298
O         53.15378        31.21817        -1.01655
O         44.60813        20.23854        -2.42457
O         53.41409        46.16285        -1.68218
O         45.85792        35.35423        -1.01646
O         37.49786        33.18887        -1.24235
O         42.39506        26.90635         2.93259
O         47.33359        39.76935        -1.41725
O         53.54090        39.91629        -1.22725
O         56.78599        25.34968         0.68393
O         37.29706        39.73241         1.89448
O         38.23461        24.89886         2.92296
O         31.97756        25.39323         2.01456
O         57.08224        42.06804         1.81886
O         57.51341        25.52153        -2.82326
O         41.42404        34.90339         2.28228
O         55.29487        27.81040         1.63317
O         35.92149        53.16908         1.53068
O         55.48218        46.40628         1.50619
O         34.42183        50.67061        -1.48044
H         33.89009        51.28609        -2.04342
O         29.32260        21.51915        -1.28429
H         30.29445        21.52618        -1.46147
O         42.70063        53.42430         1.92303
H         41.92067        53.99365         2.09944
O         32.47350        50.14045         1.62215
H         32.56626        51.07220         1.94738
O         55.05743        40.22466         2.10502
H         55.85677        40.70436         2.44695
O         25.27508        45.43946         2.01820
H         25.11544        44.74033         2.69581
O         54.04942        48.58124        -1.97390
H         53.54967        47.87397        -2.44709
O         40.62972        24.09764         3.25550
H         39.75652        24.17515         3.71467
O         42.74866        50.44520         2.31342
H         42.78669        51.41327         2.50598
O         42.96978        31.90846         3.18214
H         42.89680        31.01871         3.58996
O         60.82874        31.23019         1.64459
H         60.75470        30.24412         1.70039
O         53.89984        42.79707         1.85743
H         54.13308        41.97329         2.34974
O         57.73905        48.77311         2.14793
H         56.84122        48.93160         2.50854
O         33.42596        52.56042         1.56722
H         34.21415        52.59750         2.16478
O         41.96699        20.35844         2.15292
H         41.21832        20.49789         2.77327
O         32.39265        19.23606         2.68354
H         32.63989        19.74398         3.48764
O         43.16852        22.78087         2.55134
H         42.44608        23.17391         3.09858
O         23.40545        40.38704        -1.77210
H         23.38379        39.50277        -2.19591
O         41.81255        46.44945         2.21646
H         41.14504        46.96839         2.71340
O         46.57698        42.39498        -1.96625
H         46.77130        41.45740        -2.21577
O         32.85516        41.53843         2.36391
H         33.67384        41.07759         2.64726
O         47.62854        31.85638        -1.07619
H         47.13605        31.08051        -1.43378
O         28.29286        41.35080         2.47946
H         27.93943        42.13204         2.96693
O         45.99225        29.46488        -0.94203
H         46.04661        28.53266        -1.25113
O         27.98233        46.59109         1.58597
H         27.13960        46.35467         2.04438
O         33.40965        52.95743        -2.09222
H         32.73125        53.36101        -2.67391
O         34.70996        17.80649         2.26441
H         33.87266        18.18695         2.63481
O         48.72240        39.72271         1.97653
H         49.49689        39.36486         2.45999
O         30.27972        40.37138        -1.45916
H         30.47842        39.47970        -1.84159
O         45.84468        28.80889         2.68405
H         45.17550        28.37801         3.25679
O         28.96738        45.99347        -1.88950
H         29.70307        46.35281        -2.43086
O         60.18973        35.99123         2.35886
H         60.20951        35.05848         2.66478
O         56.47167        38.06158        -1.57321
H         57.26257        38.56028        -1.87036
O         31.88801        47.78999        -2.10833
H         32.80472        47.46709        -2.24653
O         31.52033        37.94382        -1.60339
H         32.37649        38.20581        -2.00554
O         47.87571        32.81105         2.45429
H         47.90974        33.67016         2.92337
O         31.61130        33.60429         2.07137
H         31.07965        34.37031         2.38042
O         53.98298        43.47285        -1.74113
H         53.83382        44.32218        -2.21979
O         39.69823        34.92873        -1.67474
H         39.30921        35.67843        -2.18480
O         40.08761        28.98597         3.33611
H         39.81191        29.92557         3.48273
H         22.99604        23.41768        -1.44212
H         20.92688        24.70185        -1.84630
H         20.92985        27.16329        -1.74340
H         20.90698        28.99258        -1.28864
H         20.88169        31.38311        -0.90119
H         20.84900        33.21473        -0.45529
H         20.82644        35.60885        -0.11829
H         20.82811        37.51990        -0.36523
H         20.85518        39.91197        -0.53921
H         20.83972        41.79777        -0.23304
H         20.78671        44.20336        -0.26292
H         20.79855        46.16188        -0.33493
H         22.96315        49.63596        -1.59457
H         20.86193        48.48826        -1.11595
H         24.57826        22.44327        -0.94352
H         24.64865        50.47152        -1.89461
H         26.65637        21.25233        -0.43009
H         26.71009        51.74823        -1.71430
H         30.01569        19.48661         1.99777
H         28.00535        20.66207         1.18566
H         30.42906        53.96343        -1.35019
H         28.32020        52.74257        -1.50828
H         31.99962        19.10588        -0.39452
H         31.87761        55.04633        -0.36931
H         34.11237        17.92058        -0.76802
H         33.99290        56.30275        -0.36204
H         37.39083        15.26900        -1.08379
H         35.39316        16.33373        -0.17392
H         37.76228        58.18699        -1.58770
H         35.65414        57.05502        -1.20082
H         38.97811        14.33474        -1.57130
H         39.37626        59.06320        -1.91219
H         43.19245        14.42139        -2.36262
H         41.02286        13.24307        -2.42157
H         43.65119        59.14859        -1.66812
H         41.51208        60.25429        -2.18547
H         44.88441        15.23444        -1.98906
H         45.26240        58.30875        -1.20142
H         46.98940        16.43489        -2.05445
H         47.35860        57.18287        -0.73510
H         50.68268        18.60527        -2.39756
H         48.54147        17.47956        -2.54246
H         51.08311        55.15179         0.05630
H         48.98529        56.33086        -0.20461
H         52.36415        19.43206        -2.12117
H         52.72357        54.22972         0.11630
H         54.49754        20.56950        -1.99095
H         54.82415        53.05366        -0.04636
H         58.20065        22.69793        -2.31700
H         56.16551        21.44775        -1.89765
H         58.55271        50.98115         0.53066
H         56.49755        52.14045         0.05021
H         59.78657        23.87615        -2.76052
H         60.11779        49.96223        -0.09685
H         61.90669        25.14935        -2.82828
H         62.01732        27.47094        -1.96847
H         61.82552        29.47550        -1.93813
H         61.92898        31.77208        -1.16165
H         62.33573        33.29176         0.23779
H         62.39902        35.71162         0.52734
H         62.34880        37.66300         0.53757
H         62.32908        40.07280         0.16446
H         62.26023        41.93805        -0.48736
H         62.24268        44.36648        -0.54978
H         62.22626        46.26565        -0.65647
H         62.17551        48.72606        -0.68344
