         404
 CSIRO Nanostructure Databank - Neutral Graphene Oxide Data Set
C          1.39760         2.00925         0.41177
C          1.33526         3.39093         0.21382
C          2.62153         1.34971         0.37584
C          2.50861         4.12627        -0.05408
C          1.32279         6.30817        -0.38641
C          1.30992         7.71740        -0.41997
C          2.49402         5.58815        -0.15136
C          2.41541         8.46427        -0.02042
C          1.30068        10.64811        -0.40337
C          1.36133        11.98793        -0.74437
C          2.46800         9.90401        -0.11851
C          2.60029        12.66192        -0.85278
C          1.57103        14.70422        -1.86604
C          1.64217        16.04497        -2.30475
C          2.68708        13.98110        -1.44845
C          2.84802        16.73432        -2.36612
C          2.93317        18.15426        -2.55454
C          3.81457         2.06583         0.10931
C          3.74774         3.46306        -0.11519
C          5.07967         1.39367         0.13685
C          4.94630         4.25613        -0.59419
C          3.71702         6.29229         0.10995
C          3.60736         7.72471         0.42966
C          4.96874         5.66175         0.00985
C          4.90725         8.49703         0.63716
C          3.71836        10.60987        -0.03719
C          3.78320        11.98429        -0.43753
C          4.91803         9.94092         0.33753
C          5.05206        12.66876        -0.42031
C          4.02551        14.52410        -1.70678
C          4.10278        15.99434        -2.20582
C          5.19352        13.96204        -0.99383
C          5.34070        16.72896        -1.97332
C          4.13083        18.80899        -2.47490
C          5.35807        18.11974        -2.13628
C          6.28147         2.07348        -0.04123
C          6.27170         3.50673        -0.44811
C          7.51942         1.42084         0.13926
C          7.54867         4.28355        -0.29284
C          6.18392         6.39116         0.17500
C          6.17111         7.75891         0.48206
C          7.53107         5.81727        -0.26963
C          7.38324         8.50220         0.70987
C          6.14092        10.63111         0.46370
C          6.20225        12.03949         0.13245
C          7.32359         9.91150         0.82930
C          7.40235        12.78128         0.26888
C          6.42839        14.64134        -0.96893
C          6.55341        15.97010        -1.62162
C          7.54160        14.08729        -0.26349
C          7.80692        16.78750        -1.33288
C          6.55101        18.86514        -1.91030
C          7.72327        18.26195        -1.44243
C          8.75594         2.10867         0.20627
C          8.75991         3.55859         0.15012
C          9.94903         1.39644         0.45580
C          9.91228         4.27287         0.43712
C          8.70281         6.42263         0.50120
C          8.61116         7.78418         0.89937
C          9.88390         5.68765         0.66948
C          9.77606         8.46924         1.47794
C          8.45671        10.69486         1.35120
C          8.47143        12.19420         1.09539
C          9.75044         9.99853         1.66247
C          9.75099        12.95152         1.27838
C          8.76090        14.86532        -0.01978
C          8.84513        16.20730        -0.46026
C          9.86520        14.31980         0.72034
C          9.92459        17.03026        -0.06381
C          8.83436        19.02640        -1.04469
C          9.95756        18.44032        -0.41295
C         11.21232         2.04837         0.55485
C         11.19662         3.53423         0.45378
C         12.41318         1.37722         0.69837
C         12.44211         4.26888         0.77483
C         11.05499         6.31673         1.41186
C         11.09559         7.81725         1.33920
C         12.38597         5.69183         1.13632
C         12.27432         8.51848         1.38664
C         11.00725        10.70822         1.51580
C         11.04488        12.16326         1.54538
C         12.31905         9.99648         1.72556
C         12.30076        12.88190         1.30583
C         11.02358        15.06889         1.00001
C         10.98878        16.47448         0.70776
C         12.28556        14.37144         1.61260
C         11.97354        17.39967         1.15752
C         11.09886        19.22351        -0.13777
C         12.18262        18.68457         0.59050
C         13.73749         2.10691         0.61465
C         13.61324         3.47831         1.30200
C         14.95860         1.39408         1.14616
C         14.89654         4.27289         1.23293
C         13.57559         6.39864         1.22608
C         13.54574         7.83756         1.28004
C         14.85392         5.71248         1.19761
C         14.72880         8.56691         1.06080
C         13.48685        10.71245         1.06645
C         13.45511        12.16675         0.95475
C         14.64363         9.99884         0.82126
C         14.64928        12.87209         0.58159
C         13.59622        15.01335         1.19312
C         13.77009        16.39303         1.42611
C         14.70074        14.28661         0.68480
C         14.73393        17.17851         0.79083
C         13.46531        19.32937         0.69894
C         14.68267        18.62547         0.71684
C         16.12335         2.11498         1.36175
C         16.08150         3.57859         1.34819
C         17.39478         1.44839         1.44825
C         17.32136         4.34936         1.51432
C         16.04376         6.46967         1.14217
C         15.98811         7.89493         0.98618
C         17.31953         5.79004         1.19606
C         17.19586         8.63223         0.74168
C         15.83608        10.63453         0.22560
C         15.83291        12.17105         0.08417
C         17.13155         9.95491         0.33482
C         17.12602        12.89381         0.03636
C         15.89300        14.99650         0.28574
C         15.81270        16.45169         0.13212
C         17.10917        14.32793         0.04485
C         17.11547        17.24058        -0.13124
C         15.93507        19.31612         0.55385
C         17.13745        18.66686         0.27644
C         18.61819         2.12628         1.39504
C         18.63595         3.60438         1.52838
C         19.85361         1.46717         1.22779
C         19.84056         4.35041         1.13384
C         18.51970         6.46460         1.04048
C         18.52585         7.97430         1.05519
C         19.78107         5.76024         0.96587
C         19.70704         8.56397         0.33439
C         18.33304        10.70502        -0.11237
C         18.33518        12.19497        -0.05045
C         19.65531         9.96815        -0.09402
C         19.57107        12.91296        -0.03841
C         18.35106        15.06628        -0.13358
C         18.34905        16.46336        -0.16388
C         19.60314        14.32338        -0.12118
C         19.59240        17.24212        -0.28742
C         18.39330        19.33606         0.32957
C         19.60491        18.68173         0.07706
C         21.06894         2.18269         1.06603
C         21.04513         3.63099         0.98165
C         22.29834         1.51518         0.89703
C         22.25311         4.34052         0.73545
C         20.97923         6.45760         0.59829
C         20.92774         7.89268         0.30054
C         22.18521         5.74574         0.50272
C         22.12217         8.61878        -0.01327
C         20.90100        10.73110        -0.01232
C         20.83615        12.18038         0.15670
C         22.13062        10.05197        -0.02352
C         22.16621        12.94969         0.06415
C         20.85874        15.02162        -0.19987
C         20.87988        16.49145        -0.35325
C         22.10290        14.38640        -0.22147
C         22.13687        17.17687         0.12843
C         20.85050        19.34874         0.09809
C         22.08471        18.67255        -0.03003
C         23.51911         2.21238         0.71327
C         23.50186         3.65069         0.66605
C         24.73768         1.51310         0.50205
C         24.72696         4.39275         0.58234
C         23.41203         6.40042         0.02647
C         23.36692         7.90333        -0.24785
C         24.70031         5.76086         0.32395
C         24.63152         8.65313        -0.29413
C         23.36501        10.78085        -0.24848
C         23.37035        12.19490        -0.30765
C         24.59672        10.06172        -0.45451
C         24.50770        12.91950        -0.73193
C         23.33437        15.09487        -0.49612
C         23.37991        16.51857        -0.43161
C         24.52572        14.34478        -0.75202
C         24.56474        17.24981        -0.64646
C         23.30419        19.33917        -0.08032
C         24.56076        18.68924        -0.30951
C         25.97345         2.18337         0.37408
C         26.00615         3.64166         0.64718
C         27.16661         1.52425         0.05417
C         27.30845         4.38514         0.37959
C         25.92071         6.57890         0.22049
C         25.85394         7.97117        -0.28444
C         27.26675         5.87453         0.20848
C         27.05050         8.65984        -0.61107
C         25.78529        10.73752        -0.82866
C         25.69351        12.16526        -1.16546
C         27.00922        10.04363        -0.96197
C         26.99047        12.91826        -1.41410
C         25.75409        15.05947        -0.96893
C         25.75662        16.49119        -0.97664
C         26.98821        14.37227        -1.17485
C         27.00126        17.10700        -1.25594
C         25.70090        19.46849        -0.03621
C         27.00846        19.11837        -0.47877
C         28.38940         2.21342        -0.24859
C         28.44030         3.63995        -0.19516
C         29.53306         1.51036        -0.69200
C         29.57819         4.34132        -0.66416
C         28.36532         6.53584        -0.51849
C         28.27383         7.92636        -0.79874
C         29.52663         5.79252        -0.83210
C         29.34388         8.58238        -1.47547
C         28.24002        10.74621        -1.29682
C         28.25812        12.16454        -1.34191
C         29.44584        10.03162        -1.54185
C         29.48279        12.84909        -1.36148
C         28.21850        15.04881        -1.18019
C         28.25293        16.47088        -1.10885
C         29.46981        14.32000        -1.42831
C         29.47507        17.20000        -0.79926
C         28.24367        19.29065         0.10783
C         29.44065        18.55323        -0.25277
C         30.71334         2.18870        -1.08411
C         30.71372         3.62016        -1.09725
C         31.91653         1.48832        -1.39044
C         31.96108         4.33221        -1.42188
C         30.57033         6.44742        -1.53360
C         30.33210         7.74411        -2.00513
C         31.91532         5.84887        -1.61257
C         32.18546         8.81253        -2.27773
C         30.70313        10.73772        -1.61871
C         30.71673        12.14474        -1.38552
C         32.00585        10.09311        -1.73527
C         31.96167        12.84719        -1.09880
C         30.78087        15.07498        -1.20974
C         30.69850        16.48193        -0.75121
C         31.97474        14.26089        -0.90224
C         31.89913        17.07501        -0.27481
C         30.64267        19.13931         0.15559
C         31.88036        18.45859         0.11706
C         33.10362         2.16386        -1.77460
C         33.09485         3.56382        -1.94810
C         34.37476         1.49019        -1.79190
C         34.26527         4.27477        -2.45352
C         33.09983         6.53299        -2.23383
C         33.30947         7.99065        -2.11041
C         34.14577         5.73224        -2.59030
C         34.48415         8.60166        -1.55489
C         33.18513        10.69738        -1.19707
C         33.15051        12.10205        -0.86403
C         34.38167         9.93961        -1.08199
C         34.35527        12.75960        -0.43835
C         33.14403        14.91867        -0.44535
C         33.11398        16.33173        -0.17222
C         34.35375        14.17999        -0.24506
C         34.31154        16.98277         0.24795
C         33.06788        19.10028         0.51022
C         34.29119        18.40358         0.56975
C         35.58427         2.16486        -1.82356
C         35.67774         3.58499        -2.25740
C         36.78323         1.44442        -1.50752
C         36.94030         4.34232        -1.93708
C         35.98315         6.67248        -2.04742
C         35.71272         7.84601        -1.36578
C         37.02691         5.71028        -1.72750
C         36.74123         8.35686        -0.42287
C         35.43169        10.50897        -0.14535
C         35.53253        12.01142        -0.19125
C         36.76366         9.80781        -0.15592
C         36.73255        12.64505         0.22326
C         35.54850        14.84572         0.15252
C         35.51308        16.25516         0.35669
C         36.75206        14.07613         0.38910
C         36.75373        16.97984         0.69117
C         35.44952        19.06517         1.01601
C         36.68221        18.38500         1.18049
C         38.01551         2.04862        -1.44846
C         38.15797         3.50112        -1.70668
C         39.18211         1.28310        -1.08360
C         39.47299         4.13618        -1.23454
C         38.24107         6.37682        -1.17965
C         38.03869         7.60675        -0.34835
C         39.51017         5.60529        -0.95575
C         39.25584         8.32258         0.08837
C         37.93071        10.44863         0.22663
C         37.92555        11.88643         0.46580
C         39.18382         9.70485         0.38252
C         39.11381        12.53938         0.89595
C         37.93037        14.69519         0.85065
C         37.97949        16.16563         0.96769
C         39.11444        13.95807         1.12510
C         39.03527        16.75092         1.84603
C         37.80218        19.00702         1.70099
C         38.97794        18.23678         2.14291
C         40.32987         1.86589        -0.62475
C         40.43561         3.29315        -0.48800
C         41.36023         3.87929         0.35458
C         40.48250         6.14283         0.02245
C         40.44795         7.58078         0.28316
C         41.38420         5.28370         0.60955
C         41.58465         8.25595         0.77364
C         40.35635        10.36813         0.83505
C         40.32928        11.79938         1.08628
C         41.53804         9.61621         1.02756
C         41.48683        12.48281         1.47876
C         40.31856        14.62024         1.56114
C         40.32546        16.04093         1.90154
C         41.48139        13.85800         1.71339
C         41.43137        16.73645         2.33978
C         40.25778        18.89137         2.42836
C         41.39367        18.15236         2.57244
O          4.07413         8.09835         1.77479
O         38.56925        17.20552         3.15339
O         32.32623         5.28027        -0.32097
O          9.61060         9.07288         2.82219
O         20.29950        16.99226        -1.58392
O         37.82395        16.83580        -0.33103
O         12.80022        17.04178         2.22031
O         30.24199        14.85491        -2.55488
O         37.03541         7.45606         0.71853
O          7.99713        11.64860         2.36619
O          4.27421        14.84717        -3.10586
O         27.00176        18.41905        -1.70633
O          7.13657         3.74915        -1.61831
O         18.02969         4.06415         2.78449
O         39.27455         3.78583        -2.62387
O         21.58641        12.60169         1.36143
O         15.59195        11.28556        -1.06327
O         26.13917        12.49562        -2.53138
O          7.64347        16.07053        -2.60120
O         26.92639         3.97524         1.73256
O         16.17088        16.94177        -1.19970
O         35.23781         6.36698        -3.20126
O         18.88880        10.18668        -1.37618
O         26.80628         6.54962         1.41051
O         39.34725         6.47724        -2.12433
O         31.14093         8.25024        -3.02385
O         10.23643        12.80478         2.63739
O         12.08579         4.03964        -0.64724
O         23.29703         6.91255        -1.35326
O         35.03927         3.71320        -3.55959
O         14.03946         2.28698        -0.79859
H         13.32231         2.86137        -1.17231
O         12.57306        10.04551         3.17564
H         11.74482         9.74978         3.61636
O         10.77388         6.00760         2.84124
H         10.14472         6.68676         3.17176
O         34.87451        10.20941         1.20107
H         35.58450        10.37283         1.85821
O         22.16340        16.93044         1.57358
H         22.96390        17.36426         1.93698
O         18.76406         8.34600         2.47226
H         19.43629         7.72927         2.83430
O          7.71396         6.28017        -1.63780
H          7.48941         5.52502        -2.22969
O         12.20753        14.52846         3.05426
H         11.42392        14.00620         3.35540
O          4.70660         4.45772        -2.01918
H          5.57661         4.36065        -2.47219
O         13.34292         3.20923         2.70253
H         13.25357         4.06666         3.17012
H          0.47652         1.44578         0.61566
H          0.36599         3.90391         0.28019
H          2.67439         0.26606         0.55265
H          0.39461         5.77278        -0.62929
H          0.39171         8.21957        -0.75413
H          0.31985        10.15448        -0.38234
H          0.42727        12.51024        -0.98900
H          0.56967        14.26589        -1.75765
H          0.70476        16.58550        -2.49994
H          2.00895        18.71257        -2.76321
H          5.10251         0.32248         0.38649
H          4.17480        19.89716        -2.62503
H          7.51373         0.33597         0.32415
H          6.51924        19.95969        -2.01465
H          9.90641         0.29970         0.53011
H          8.82253        20.11419        -1.20797
H         12.41098         0.27601         0.71931
H         11.15067        20.25299        -0.51965
H         14.99755         0.29356         1.11686
H         13.51011        20.40406         0.46214
H         17.40060         0.34846         1.39935
H         15.94699        20.40555         0.71076
H         19.87398         0.36762         1.18670
H         18.40866        20.40256         0.60114
H         22.31506         0.41521         0.92168
H         20.86021        20.44527         0.19969
H         24.71321         0.41611         0.41947
H         23.31102        20.43728         0.00167
H         27.14641         0.43183        -0.07792
H         25.56152        20.39143         0.54793
H         29.51411         0.41099        -0.71278
H         28.33324        19.98595         0.95608
H         31.94129         0.39574        -1.26869
H         30.62474        20.16584         0.55046
H         34.38582         0.41487        -1.55626
H         33.03871        20.16249         0.79385
H         36.69568         0.37076        -1.28244
H         35.37952        20.12330         1.30907
H         39.09079         0.18697        -1.08425
H         37.76569        20.08248         1.93323
H         41.15396         1.24043        -0.25189
H         42.07560         3.23813         0.88945
H         42.12063         5.66662         1.32955
H         42.52248         7.70686         0.93367
H         42.45116        10.10439         1.39056
H         42.43315        11.94492         1.61596
H         42.41643        14.33584         2.03377
H         42.40361        16.23526         2.44398
H         40.29030        19.98876         2.49253
H         42.34061        18.65578         2.81460
