         200
 CSIRO Nanostructure Databank - Neutral Graphene Oxide Data Set
C        -11.12503         0.78359         0.09906
C         -9.97154         1.57623        -0.47221
C         -8.66463         0.82112        -0.39420
C         -7.41961         1.55666        -0.32707
C         -6.17441         0.85865        -0.38468
C         -4.95850         1.51645        -0.12295
C         -3.71720         0.77897        -0.07348
C         -2.53021         1.45749         0.20857
C         -1.27027         0.72464         0.36341
C          0.00262         1.45015         0.40026
C          1.22173         0.68383         0.42354
C          2.45088         1.34184         0.82849
C          3.72080         0.73418         0.71054
C          5.05205         1.43091         1.09715
C          6.25570         0.71211         0.51057
C          7.44433         1.41473         0.17398
C          8.65125         0.69351        -0.06265
C          9.85927         1.40464        -0.39017
C         11.08398         0.64620        -0.51211
C         -9.88907         2.98000         0.04709
C         -8.68078         3.65939         0.16158
C         -7.42235         2.94513        -0.02782
C         -6.19334         3.64576         0.16913
C         -4.94776         2.92971         0.11420
C         -3.72229         3.61582         0.28641
C         -2.47640         2.88783         0.29016
C         -1.24732         3.55266         0.41838
C         -0.00561         2.84377         0.49695
C          1.21479         3.50913         0.89973
C          2.24100         2.68223         1.30256
C          4.10042         3.76348         1.23323
C          5.09927         2.92825         0.77799
C          6.23134         3.56953         0.17599
C          7.43241         2.83892        -0.02764
C          8.61215         3.52348        -0.45412
C          9.82538         2.78227        -0.59375
C         -8.64903         5.04651         0.48007
C         -7.43175         5.77131         0.60882
C         -6.18299         5.03411         0.46740
C         -4.95316         5.71873         0.66175
C         -3.70868         5.02117         0.53493
C         -2.47632         5.72658         0.60006
C         -1.18184         5.04245         0.26083
C          0.00207         5.73461         0.92885
C          1.29471         4.99380         1.12208
C          2.57770         5.74322         0.85041
C          3.84806         5.09473         0.76880
C          4.98480         5.72173         0.16786
C          6.18474         4.97465        -0.05497
C          7.35855         5.64488        -0.54344
C          8.54977         4.91349        -0.71714
C         -7.42215         7.13662         0.88653
C         -6.17604         7.95341         1.10803
C         -4.92249         7.09926         1.00878
C         -3.68851         7.70325         1.19210
C         -2.44910         7.10455         0.84052
C         -1.22200         7.88235         0.61534
C          0.01318         7.19779         0.66424
C          1.24697         7.83588         0.40542
C          2.50165         7.10757         0.43317
C          3.68567         7.79149        -0.00435
C          4.91448         7.09892        -0.16348
C          6.09795         7.76006        -0.65551
C          7.28106         7.04471        -0.81990
C         -6.10994         9.12857         0.11125
C         -5.04145         9.90851        -0.18586
C         -3.70082         9.71202         0.36179
C         -2.49711         9.91790        -0.24310
C         -1.25146         9.24842         0.16668
C         -0.03218         9.87213        -0.11906
C          1.21413         9.21277         0.01779
C          2.42586         9.87682        -0.32296
C          3.63264         9.18801        -0.36142
C          4.84100         9.84635        -0.80082
C          6.01471         9.17005        -0.94846
C        -11.09702        -0.56396         0.17711
C         -9.89561        -1.32199        -0.14651
C         -8.69136        -0.56802        -0.42060
C         -7.47227        -1.33195        -0.73016
C         -6.15355        -0.57241        -0.73158
C         -4.92438        -1.35313        -0.53080
C         -3.71997        -0.66205        -0.28526
C         -2.51486        -1.39957        -0.30497
C         -1.24966        -0.72756         0.02435
C          0.01049        -1.31983        -0.54744
C          1.24164        -0.63877         0.00732
C          2.53423        -1.27966        -0.17568
C          3.77399        -0.62626         0.27179
C          4.97039        -1.38056         0.27700
C          6.23267        -0.69052         0.37999
C          7.44574        -1.42580         0.18785
C          8.66649        -0.72478         0.03305
C          9.90009        -1.45940        -0.10282
C         11.10858        -0.70822        -0.35107
C         -9.86998        -2.70748        -0.11609
C         -8.65822        -3.46995        -0.28145
C         -7.43847        -2.78664        -0.51326
C         -6.20614        -3.48431        -0.53410
C         -4.94971        -2.77174        -0.56909
C         -3.72649        -3.50407        -0.48495
C         -2.49595        -2.79999        -0.43375
C         -1.22453        -3.51105        -0.31193
C         -0.02996        -2.81509        -0.31776
C          1.24188        -3.49780        -0.07145
C          2.53316        -2.79812        -0.35492
C          3.77557        -3.50909        -0.08315
C          4.96748        -2.81360         0.09738
C          6.21191        -3.56264         0.15201
C          7.43614        -2.86063         0.16531
C          8.67957        -3.58639         0.12480
C          9.89684        -2.84854        -0.00789
C         -8.64390        -4.88927        -0.20518
C         -7.44672        -5.60859        -0.25984
C         -6.19926        -4.90136        -0.35746
C         -4.96879        -5.60823        -0.25088
C         -3.74019        -4.93549        -0.33740
C         -2.49404        -5.65758        -0.21508
C         -1.25628        -4.96544        -0.20142
C         -0.05328        -5.70278        -0.11879
C          1.22024        -4.98959         0.02550
C          2.47168        -5.72451        -0.29510
C          3.76883        -4.96891        -0.25627
C          4.99677        -5.72252         0.00961
C          6.20878        -4.99351         0.13353
C          7.44736        -5.71915         0.21080
C          8.66280        -4.99430         0.18924
C         -7.42303        -7.06119        -0.25924
C         -6.25740        -7.76859        -0.13147
C         -4.98858        -7.03816         0.22585
C         -3.72221        -7.79664        -0.07764
C         -2.49550        -7.09409        -0.13984
C         -1.26322        -7.82318        -0.12937
C         -0.02785        -7.12307        -0.11723
C          1.21928        -7.84752        -0.02889
C          2.46527        -7.17618        -0.06475
C          3.69777        -7.85354         0.03500
C          4.95165        -7.12933         0.07263
C          6.18895        -7.84564         0.22368
C          7.39828        -7.14342         0.26177
C         -6.19992        -9.21312        -0.18652
C         -5.02161        -9.89482        -0.13031
C         -3.73373        -9.21512        -0.09067
C         -2.52539        -9.92922        -0.09610
C         -1.27004        -9.25959        -0.07111
C         -0.03961        -9.95757         0.01806
C          1.20498        -9.28044         0.05346
C          2.45370        -9.96454         0.14933
C          3.67767        -9.28305         0.15758
C          4.94607        -9.96722         0.27909
C          6.13030        -9.28815         0.30847
O          2.58429        -1.93431        -1.52893
O         -0.93266         5.27397        -1.17399
H         -1.67825         4.87719        -1.67249
O          1.31095        -4.17124         1.24925
O          3.20140         3.22504         2.16122
O         -5.01767        -6.94057         1.70657
H         -4.19684        -6.47864         1.98228
O          3.10437        -5.33694        -1.55673
O         -6.26611         8.53515         2.43470
H         -5.41565         9.00920         2.58714
O         -0.01690        -1.06845        -1.98335
H          0.85550        -1.37378        -2.33216
O         -3.67175         9.04894         1.61473
O        -10.26849         1.70744        -1.91958
H        -10.15760         0.81683        -2.31683
O          5.16939         1.27847         2.54210
H          4.45755         1.83063         2.94085
O          0.43808         5.38456         2.26966
O         -6.84136        -0.90106        -1.98966
O         -1.24010        -0.33895         1.42802
H         12.05706        -1.25819        -0.44235
H         12.01360         1.19209        -0.73200
H         10.74683         3.31427        -0.87458
H          9.45361         5.43319        -1.06881
H          8.18040         7.56461        -1.18353
H          6.91751         9.69011        -1.30088
H          4.78671        10.91896        -1.03922
H          2.39249        10.93725        -0.61456
H         -0.03616        10.90703        -0.49282
H         -2.45284        10.52759        -1.15901
H         -5.15917        10.68494        -0.96012
H         -7.05526         9.36370        -0.40561
H         -8.38471         7.65604         1.01364
H         -9.60255         5.57964         0.61313
H        -10.83168         3.52603         0.20657
H        -12.04703         1.33033         0.34942
H        -11.98173        -1.12123         0.52183
H        -10.79989        -3.25382         0.10379
H         -9.59624        -5.42821        -0.08975
H         -8.37567        -7.59482        -0.40410
H         -7.14724        -9.76486        -0.28672
H         -5.02214       -10.99440        -0.16660
H         -2.54728       -11.02940        -0.08915
H         -0.05270       -11.05685         0.06876
H          2.45120       -11.06302         0.22057
H          4.94121       -11.06479         0.35611
H          7.07612        -9.84149         0.40851
H          8.34303        -7.70363         0.33410
H          9.61648        -5.54336         0.19916
H         10.84637        -3.39998        -0.08317
