         276
 CSIRO Nanostructure Databank - Neutral Graphene Oxide Data Set
C        -11.20641         0.67094        -0.03833
C        -10.06683         1.43795        -0.59706
C         -8.79432         0.69349        -0.78932
C         -7.60258         1.50156        -1.28726
C         -6.27153         0.73779        -1.15708
C         -4.99787         1.48916        -0.95151
C         -3.75219         0.75175        -0.57059
C         -2.46362         1.44302        -0.99414
C         -1.23475         0.79927        -0.33065
C          0.07487         1.46025        -0.58483
C          1.23497         0.61027        -1.10224
C          2.63280         1.35843        -1.28572
C          3.79115         0.78601        -0.40968
C          5.14111         1.41058        -0.75497
C          6.32581         0.87821         0.10205
C          7.63762         1.56049        -0.39385
C          8.92014         0.89369         0.05129
C         10.14014         1.61629        -0.39589
C         11.36045         0.81432        -0.35533
C        -10.02845         2.92907        -0.46988
C         -8.74394         3.68206        -0.53071
C         -7.51252         2.95905        -0.80772
C         -6.30656         3.63128        -0.73709
C         -5.00067         2.92623        -0.45730
C         -3.68982         3.66956        -0.77495
C         -2.52949         2.96212        -0.88136
C         -1.21732         3.65102        -0.90278
C          0.05738         2.84562        -1.19005
C          1.36020         3.54626        -0.83088
C          2.57809         2.86842        -1.01732
C          3.77718         3.60520        -0.94479
C          5.05709         2.92492        -0.58568
C          6.29989         3.72111        -0.33577
C          7.65437         3.06563        -0.00243
C          8.85745         3.75751        -0.61976
C         10.07721         2.95949        -0.69993
C         -8.75459         5.01284        -0.18949
C         -7.57019         5.85080        -0.37460
C         -6.27626         5.09506        -0.64553
C         -4.98634         5.80641        -0.29718
C         -3.66439         5.14967        -0.52306
C         -2.37721         5.85771         0.02883
C         -1.14741         4.97302        -0.19304
C          0.13980         5.01823         0.60579
C          1.37352         4.83928        -0.26777
C          2.54643         5.62694        -0.33872
C          3.73512         5.01342        -0.80890
C          4.98946         5.79933        -0.92682
C          6.32475         5.07051        -1.02557
C          7.55520         5.87656        -0.64255
C          8.80686         5.11940        -0.80113
C         -7.45935         7.23938         0.15878
C         -6.29301         7.72116         0.66464
C         -5.16505         6.73628         0.90530
C         -3.87275         7.30782         1.53059
C         -2.54189         6.63795         1.33518
C         -1.39490         7.53212         1.88904
C          0.29185         6.87661         1.18929
C          1.35576         7.69503         0.57530
C          2.54225         7.05788        -0.02327
C          3.65109         7.83486        -0.16895
C          4.95416         7.23229        -0.53802
C          6.16389         7.81989         0.15970
C          7.47532         7.18796        -0.28006
C         -6.14091         9.09881         1.10436
C         -5.02905         9.57829         1.69370
C         -3.77482         8.79179         1.99030
C         -2.57406         9.50919         1.33846
C         -1.31399         8.93794         1.26694
C         -0.13584         9.67029         0.90201
C          1.17590         9.16059         0.60848
C          2.29111         9.93289         0.32350
C          3.56857         9.33986        -0.24420
C          4.88401         9.98502         0.16823
C          6.06264         9.33510         0.19002
C        -11.23399        -0.66598        -0.11927
C        -10.11674        -1.42076        -0.78582
C         -8.80703        -0.66765        -0.77449
C         -7.56910        -1.47230        -0.99897
C         -6.30748        -0.70730        -0.61505
C         -5.00681        -1.47612        -0.83120
C         -3.75047        -0.73292        -0.48548
C         -2.42662        -1.45712        -0.72252
C         -1.31186        -0.69190         0.03955
C          0.01430        -1.44257        -0.05452
C          1.30071        -0.76745        -0.40329
C          2.47337        -1.31200         0.43304
C          3.80047        -0.56904         0.22582
C          5.11458        -1.28822         0.34369
C          6.30216        -0.64042         0.15966
C          7.60431        -1.35429         0.28523
C          8.89561        -0.59572         0.13029
C         10.10120        -1.35363        -0.56540
C         11.35789        -0.54108        -0.29949
C        -10.05110        -2.86326        -0.40835
C         -8.88045        -3.75558        -0.68496
C         -7.57885        -2.97836        -0.93007
C         -6.28690        -3.73531        -0.68104
C         -4.98967        -2.97014        -0.69882
C         -3.76529        -3.65959        -0.18785
C         -2.44872        -2.94652        -0.29874
C         -1.24359        -3.54143         0.38591
C          0.01702        -2.74786         0.75218
C          1.22843        -3.63475         0.33467
C          2.54006        -2.81905         0.24185
C          3.83779        -3.49289         0.47073
C          5.12382        -2.75609         0.76690
C          6.28105        -3.53119         0.07789
C          7.60304        -2.84185         0.19077
C          8.80739        -3.58127        -0.44445
C         10.01295        -2.76238        -0.06436
C         -8.76597        -4.78064         0.47579
C         -7.59696        -5.72027         0.32814
C         -6.30562        -5.08542        -0.04733
C         -5.12631        -5.53775         0.79399
C         -3.81699        -4.91447         0.33664
C         -2.60084        -5.62163         0.85123
C         -1.32633        -4.89358         1.04234
C         -0.02460        -5.63722         1.30820
C          1.27389        -4.89907         1.19595
C          2.57919        -5.64682         1.21768
C          3.86038        -4.91573         0.93609
C          5.00036        -5.69455         0.40427
C          6.24676        -5.02656        -0.08012
C          7.57143        -5.77098        -0.02701
C          8.74020        -5.05618        -0.05721
C         -7.61965        -7.03583         0.61285
C         -6.37976        -7.90091         0.74394
C         -5.09008        -7.06793         0.97155
C         -3.80584        -7.82369         0.88240
C         -2.54039        -7.09467         0.49737
C         -1.29694        -7.86099         0.93482
C         -0.02692        -7.15063         1.24671
C          1.24600        -7.74786         0.62920
C          2.54212        -7.15242         1.17370
C          3.80799        -7.88458         0.77994
C          4.80612        -7.01204         0.14833
C          6.65799        -8.11266        -0.20901
C          7.63589        -7.24162         0.18800
C         -6.10131        -8.83827        -0.43283
C         -4.94179        -9.51080        -0.51820
C         -3.83709        -9.31170         0.51000
C         -2.47901        -9.85279         0.08515
C         -1.26656        -9.24254         0.35644
C         -0.00484        -9.86594         0.10347
C          1.24915        -9.24772         0.36737
C          2.44913        -9.89025         0.04768
C          3.80377        -9.40555         0.54409
C          5.09559       -10.03480         0.00082
C          6.36522        -9.54390        -0.06069
O         -1.44688        -3.69273        -1.05978
O          9.11880         0.19118         1.31962
O         -4.83400        -2.29214        -2.00254
O          5.57199        -7.53765        -0.89345
O          5.37531         3.50671         0.75346
O         -7.59126        -2.26881        -2.22375
O         -5.41787         1.09973        -2.28804
O          7.77228        -2.23508         1.49228
O          1.22255        -7.25568        -0.70590
O         -1.22406         7.49400         3.13424
O        -10.44788         2.32423        -1.71218
O         -4.24805         6.08548        -1.50406
O          0.15135         4.45779         1.72750
O          5.00851         6.88747        -1.95965
O          3.64810         0.70158         1.02911
O         -2.24362        -5.11427         2.17289
O          3.00045         1.18122        -2.63036
O          3.35674        -3.25404        -0.88256
O         -6.99555         5.75827        -1.72842
O          1.22867         7.10749         2.03728
O         -1.02196         4.90221        -1.65411
O         -0.78130        -7.80797         2.30472
O          0.61415        -5.02037         2.47500
O         -3.36883         6.26674         2.45011
O          0.65991        -1.71377        -1.32334
O         -6.13046        -4.96886        -1.48360
O          3.43632        -7.66341         2.19336
O          6.04840        -4.10935        -1.23643
O         -3.81817         0.09389         0.72533
O         -4.35316        -7.47339         2.17869
O          3.43790        -5.14178         2.30078
O         -0.50135         1.48756         0.75165
O          6.49497         4.73151        -2.43116
H          6.27546         5.54098        -2.94518
O         -2.51254        -7.13356        -0.95486
H         -1.68319        -6.71625        -1.27689
O         -2.34294         1.18419        -2.40920
H         -1.42712         1.41120        -2.70798
O          0.05012         2.70994        -2.63098
H         -0.02265         3.61506        -3.00650
O         -4.98073         2.79610         1.00396
H         -5.12764         3.68805         1.39998
O          7.88599         3.22157         1.40528
H          7.13238         2.78487         1.87267
O          5.30347        -2.81498         2.18462
H          6.18316        -2.42380         2.40531
O         -8.56466        -4.00975         1.66636
H         -8.10204        -4.55981         2.33299
O         -2.10814         7.00046        -0.83149
H         -2.05304         6.66562        -1.75563
O         -2.16464        -1.40812        -2.11906
H         -1.46376        -2.06916        -2.31956
O          8.58933        -3.53186        -1.87610
H          7.66953        -3.86998        -2.04420
O          0.75094         0.34125        -2.42908
H          1.51651         0.52602        -3.04283
O          3.46862         9.61699        -1.68984
H          4.07019         8.99187        -2.15301
O          7.83498         1.48640        -1.81627
H          7.00516         1.71884        -2.30092
O        -10.46143        -1.62223        -2.21186
H         -9.61089        -1.79261        -2.68467
O          0.06899        -2.56284         2.15710
H         -0.66770        -1.96380         2.41665
O         -4.19823       -10.07522         1.69778
H         -3.69223        -9.70279         2.45291
O         -5.38272        -4.97960         2.10913
H         -4.72917        -5.39036         2.72146
O          5.41855         1.09015        -2.11976
H          4.53694         1.13946        -2.62940
O         -1.65715        -0.74530         1.44667
H         -1.36398         0.10146         1.85553
O          6.18103         1.24680         1.48687
H          5.23065         1.12150         1.73716
O          5.98164         7.39854         1.55175
H          6.79046         7.63377         2.05272
O         -5.70119         5.77117         1.87708
H         -5.48604         6.09300         2.77981
O         -7.87844         1.61658        -2.70549
H         -7.01499         1.76146        -3.15823
O          1.00919        -4.22614        -0.95270
H          1.12062        -3.53585        -1.64550
O          2.12487        -1.13134         1.81793
H          2.38277        -0.22237         2.09011
O          3.75390       -10.07532         1.85005
H          3.46394        -9.38551         2.50477
O         -3.57984         8.83811         3.41544
H         -2.78623         8.28317         3.63260
O         -9.19494        -4.51477        -1.87723
H         -8.86740        -4.00224        -2.64928
O          9.86300        -1.23374        -1.96629
H          9.36008        -2.02548        -2.28354
O         -6.63301        -8.72467         1.89338
H         -5.84018        -9.30299         2.02776
O         -6.44591        -0.55466         0.82353
H         -5.60115        -0.16545         1.17074
H         12.31381        -1.08321        -0.24426
H         12.32393         1.34759        -0.31986
H         10.99940         3.47440        -1.01597
H          9.72698         5.67561        -1.04520
H          8.40101         7.73933        -0.04345
H          6.98409         9.90290         0.40154
H          4.87667        11.08123         0.28027
H          2.20507        11.03089         0.32037
H         -0.26395        10.76214         0.80875
H         -2.71789        10.55193         1.00883
H         -5.00846        10.63089         2.01457
H         -6.99937         9.76940         0.94380
H         -8.32659         7.90864         0.04207
H         -9.67769         5.46824         0.20122
H        -10.85418         3.43063         0.08601
H        -12.04520         1.22751         0.40594
H        -12.08922        -1.23921         0.26830
H        -11.02387        -3.37682        -0.31736
H         -9.73095        -5.35773         0.54065
H         -8.56891        -7.51797         0.89561
H         -6.89329        -9.01176        -1.17705
H         -4.77049       -10.22366        -1.33940
H         -2.47573       -10.87455        -0.32926
H         -0.00831       -10.87754        -0.33573
H          2.39743       -10.95439        -0.24403
H          5.01385       -11.13564        -0.01150
H          7.19127       -10.26737        -0.16435
H          8.54766        -7.62646         0.66887
H          9.69380        -5.60308         0.00881
H         10.41501        -2.94794         0.94663
