         424
 CSIRO Nanostructure Databank - Neutral Graphene Oxide Data Set
C          1.70844         2.10138         2.58219
C          1.86453         3.44650         3.06940
C          2.71112         1.49321         1.90077
C          2.95924         4.18958         2.73901
C          1.77658         7.23527         2.43912
C          1.59043         8.36117         1.65077
C          2.94196         6.47265         2.30943
C          2.63832         8.80793         0.82765
C          1.31229        10.81244         0.13642
C          1.27495        12.18254        -0.14842
C          2.53672        10.10225         0.16886
C          2.41730        12.88597        -0.52731
C          1.31584        15.08944        -0.13512
C          1.37548        16.45529         0.01840
C          2.46392        14.33054        -0.52470
C          2.60416        17.14403        -0.14152
C          2.69271        18.54997         0.09119
C          4.01348         2.15132         1.72204
C          4.14450         3.65955         2.03990
C          5.00585         1.56556         0.83496
C          5.16408         4.46809         1.30364
C          3.96430         6.76117         1.37268
C          3.84176         8.04425         0.73387
C          5.11037         5.89108         1.06780
C          4.98350         8.64663         0.10548
C          3.69974        10.71592        -0.34068
C          3.60192        12.07265        -0.99799
C          4.93395        10.02383        -0.32585
C          4.91396        12.82080        -1.01534
C          3.67089        15.01425        -0.79202
C          3.76448        16.41088        -0.54075
C          4.83542        14.28315        -1.42491
C          5.01621        17.10243        -0.62793
C          3.89059        19.20797        -0.01857
C          5.08674        18.49471        -0.35754
C          6.18497         2.25301         0.61474
C          6.25138         3.70631         0.78076
C          7.33356         1.51789         0.17754
C          7.39974         4.35755         0.24484
C          6.20991         6.50467         0.37647
C          6.17750         7.91144        -0.00420
C          7.37102         5.74942         0.06619
C          7.36148         8.59042        -0.45981
C          6.13469        10.70057        -0.69976
C          6.09305        12.11334        -1.04009
C          7.36681        10.00239        -0.70450
C          7.35402        12.74787        -1.49965
C          6.14515        15.00834        -1.24554
C          6.22054        16.37251        -0.93574
C          7.35634        14.30195        -1.60510
C          7.47817        17.06396        -0.99833
C          6.33548        19.15801        -0.39491
C          7.52252        18.47294        -0.70978
C          8.55264         2.13345        -0.06129
C          8.58839         3.58672        -0.13186
C          9.76565         1.38161        -0.16156
C          9.76259         4.21652        -0.49467
C          8.49300         6.37705        -0.72485
C          8.57324         7.87287        -0.59011
C          9.81301         5.65673        -0.58139
C          9.78104         8.55295        -0.75828
C          8.61505        10.68537        -0.96620
C          8.63781        12.06857        -1.31052
C          9.83862         9.96543        -0.92612
C          9.86644        12.74450        -1.55577
C          8.64132        14.99336        -1.55806
C          8.67994        16.36174        -1.33013
C          9.85340        14.20047        -1.87101
C          9.92189        17.16320        -1.69088
C          8.77680        19.14523        -0.66230
C          9.97721        18.51273        -1.01049
C         10.99713         2.00300        -0.35895
C         11.00119         3.42194        -0.87401
C         12.23107         1.32393        -0.24933
C         12.26236         4.16912        -0.56730
C         10.99987         6.32252        -0.67140
C         11.02757         7.79476        -0.57257
C         12.29336         5.59422        -0.99867
C         12.32343         8.52288        -0.67638
C         11.10167        10.65108        -1.12676
C         11.10280        12.06263        -1.41706
C         12.32245         9.95245        -1.03050
C         12.37409        12.76892        -1.49491
C         11.18076        14.93979        -1.86467
C         11.21926        16.39325        -1.57333
C         12.39890        14.15476        -1.63706
C         12.41274        17.05972        -1.42475
C         11.20675        19.14538        -0.81719
C         12.44709        18.49615        -1.11100
C         13.46772         2.00730        -0.20196
C         13.43753         3.49613         0.07124
C         14.68863         1.33514        -0.20458
C         14.75546         4.21230        -0.16224
C         13.52995         6.35820        -0.60004
C         13.55512         7.72291        -0.76307
C         14.71071         5.65259        -0.16413
C         14.86173         8.41564        -0.96449
C         13.58875        10.62307        -1.07377
C         13.62235        12.04605        -1.26641
C         14.79322         9.91590        -0.84345
C         14.86009        12.70926        -1.17864
C         13.66313        14.90161        -1.70899
C         13.68539        16.35791        -1.48942
C         14.95783        14.14375        -1.49724
C         14.89023        17.02568        -1.36554
C         13.64726        19.17175        -1.08418
C         14.91929        18.52427        -1.56090
C         15.94132         2.02243        -0.16951
C         15.94703         3.47518        -0.27391
C         17.14873         1.31078        -0.09671
C         17.24652         4.10852        -0.39791
C         15.76921         6.46788         0.34311
C         15.97187         7.79354        -0.14202
C         17.45732         5.48867        -0.93724
C         17.22058         8.43861        -0.23334
C         16.01064        10.60076        -0.63706
C         16.04791        12.02210        -0.78193
C         17.23512         9.88107        -0.39835
C         17.26766        12.71874        -0.54302
C         16.13397        14.91384        -1.09113
C         16.13219        16.30792        -1.13509
C         17.41871        14.15845        -0.97064
C         17.33312        17.03661        -0.80719
C         16.15175        19.18277        -1.02046
C         17.31574        18.47693        -0.74771
C         18.40825         1.97235         0.01000
C         18.40265         3.41275        -0.09169
C         19.64568         1.30922         0.10587
C         19.62107         4.14549         0.40444
C         18.52218         6.30068        -0.26708
C         18.47404         7.72165        -0.15934
C         19.68098         5.61051         0.08654
C         19.68516         8.42259         0.09374
C         18.42421        10.59301        -0.18743
C         18.41794        12.00734        -0.18143
C         19.75374         9.88981        -0.24261
C         19.60389        12.72060         0.36124
C         18.49125        14.93748        -0.27707
C         18.50931        16.32775        -0.38130
C         19.60656        14.23477         0.35462
C         19.70409        17.04409         0.01790
C         18.53836        19.16656        -0.42821
C         19.71475        18.49285        -0.10843
C         20.90204         2.01059         0.14004
C         20.92018         3.43010         0.21505
C         22.14532         1.32847         0.11578
C         22.12600         4.15973         0.32841
C         20.87957         6.30936         0.37214
C         20.86275         7.72731         0.36279
C         22.11981         5.59065         0.47627
C         22.06265         8.44626         0.90865
C         20.92536        10.62686         0.36439
C         20.89568        12.03261         0.50086
C         22.10441         9.92060         0.61195
C         22.06061        12.75640         0.88749
C         20.87736        14.94057         0.55561
C         20.85884        16.35517         0.41955
C         22.04742        14.21685         0.92418
C         22.04386        17.13206         0.93628
C         20.95938        19.18512         0.01132
C         22.14055        18.52402         0.36653
C         23.36816         2.02693         0.18638
C         23.37052         3.45937         0.29902
C         24.62087         1.34480         0.14703
C         24.59526         4.17924         0.39678
C         23.34841         6.31237         0.55608
C         23.36032         7.72914         0.66825
C         24.59213         5.60063         0.51397
C         24.56680         8.45554         0.75345
C         23.31674        10.61829         0.86166
C         23.27747        12.02834         1.03628
C         24.55989         9.88615         0.90782
C         24.51181        12.68857         1.46367
C         23.26858        14.94372         1.10351
C         23.33385        16.34342         0.89563
C         24.50163        14.25455         1.49190
C         24.56540        17.02416         0.88020
C         23.38995        19.15043         0.33044
C         24.59724        18.45193         0.62936
C         25.83486         2.02774         0.25371
C         25.84007         3.47447         0.41025
C         27.07877         1.34459         0.12315
C         27.04299         4.18060         0.54454
C         25.81842         6.31889         0.59647
C         25.81807         7.74695         0.70352
C         27.05377         5.60076         0.60245
C         27.04324         8.45766         0.77673
C         25.79531        10.59369         1.00909
C         25.79746        11.99735         1.27521
C         27.03976         9.88753         0.91837
C         27.01596        12.69827         1.41278
C         25.77577        14.93608         1.39280
C         25.81117        16.31716         1.10394
C         27.00671        14.16826         1.84336
C         27.03068        17.05982         1.13984
C         25.82020        19.12921         0.62314
C         27.04377        18.45508         0.89237
C         28.30410         2.01158         0.24032
C         28.32190         3.42248         0.78571
C         29.52339         1.36462        -0.00097
C         29.55737         4.20092         0.40777
C         28.29093         6.32666         0.63665
C         28.28511         7.74285         0.71717
C         29.53634         5.61847         0.49085
C         29.52263         8.47081         0.71780
C         28.26341        10.60651         1.00813
C         28.23403        12.00810         1.24098
C         29.52822         9.89303         0.86643
C         29.54209        12.70813         1.54120
C         28.24432        14.90785         1.36041
C         28.29684        16.39609         1.63303
C         29.51832        14.17468         1.17308
C         29.55155        17.04579         1.08758
C         28.27665        19.16586         0.90464
C         29.51580        18.49422         0.94906
C         30.76212         2.06884        -0.01336
C         30.75406         3.51543         0.14830
C         31.96760         1.40763        -0.26083
C         31.97524         4.24163        -0.00342
C         30.75151         6.35162         0.37385
C         30.75014         7.77865         0.51822
C         31.97202         5.66100         0.13051
C         31.97813         8.50053         0.42918
C         30.75802        10.58377         0.83665
C         30.75211        12.09056         0.81346
C         31.98296         9.91722         0.59660
C         32.06665        12.72485         1.31470
C         30.80147        14.91681         1.10007
C         30.73185        16.34118         0.91700
C         32.02324        14.22672         1.08202
C         31.96992        17.06051         0.41554
C         30.73025        19.20278         0.90493
C         31.97969        18.53255         0.78349
C         33.20075         2.11380        -0.37950
C         33.19324         3.54937        -0.26286
C         34.41148         1.44469        -0.62260
C         34.40368         4.27680        -0.41383
C         33.19253         6.39320        -0.01043
C         33.19512         7.81325         0.13486
C         34.39961         5.70315        -0.29874
C         34.40673         8.54623        -0.04004
C         33.22529        10.65357         0.46798
C         33.26990        12.05671         0.68883
C         34.42027         9.96853         0.11807
C         34.46742        12.77454         0.57370
C         33.25118        14.92126         0.95592
C         33.25876        16.36253         0.79583
C         34.48627        14.20487         0.80923
C         34.42902        17.05980         0.84224
C         33.16830        19.21258         0.83669
C         34.47814        18.53945         0.53563
C         35.63187         2.15378        -0.76771
C         35.62315         3.58644        -0.67397
C         36.85940         1.48640        -0.99618
C         36.83246         4.31719        -0.83952
C         35.61096         6.43662        -0.48143
C         35.60844         7.85714        -0.36676
C         36.82291         5.74575        -0.76158
C         36.81357         8.59125        -0.61348
C         35.65269        10.69084        -0.04249
C         35.68562        12.11030         0.20818
C         36.82484        10.01650        -0.44183
C         36.90218        12.82852         0.12898
C         35.70244        14.90429         0.75825
C         35.71187        16.34541         1.20447
C         36.92197        14.24659         0.42184
C         36.94783        17.09610         0.79110
C         35.64310        19.22010         1.26683
C         36.95515        18.53678         0.96009
C         38.06361         2.19839        -1.13539
C         38.05432         3.62944        -1.07489
C         39.31682         1.52616        -1.32514
C         39.27352         4.36430        -1.20956
C         38.02220         6.48297        -0.98912
C         37.98826         7.89756        -0.97538
C         39.26350         5.78665        -1.18952
C         39.17831         8.64664        -1.50373
C         38.06120        10.75166        -0.65494
C         38.10319        12.17324        -0.31415
C         39.18220        10.10830        -1.13546
C         39.30490        12.88655        -0.43526
C         38.12088        14.99447         0.30126
C         38.10228        16.41074         0.42123
C         39.43744        14.26543         0.17919
C         39.28343        17.26160        -0.00862
C         38.12689        19.23175         0.96528
C         39.43344        18.48338         0.89935
C         40.49287         2.23141        -1.41152
C         40.50639         3.65757        -1.34422
C         41.72015         4.39752        -1.38519
C         40.49951         6.51824        -1.23456
C         40.48235         7.93767        -1.21298
C         41.71937         5.77288        -1.30335
C         41.65399         8.72075        -0.98955
C         40.43592        10.85712        -1.50608
C         40.45860        12.28820        -1.02016
C         41.65504        10.08383        -1.05149
C         41.58118        13.05514        -1.29920
C         40.56476        15.09345        -0.41006
C         40.59323        16.51934        -0.17057
C         41.61042        14.44850        -1.04003
C         41.73941        17.27337        -0.23738
C         40.61681        19.31862         0.47471
C         41.71314        18.70355        -0.02502
O         16.95313         5.84342        -2.00424
O         14.49132        14.48042        -2.86068
O          4.70126         2.63347         2.93896
O         10.48999        14.59739        -3.14053
O          3.06371         5.47059         3.27361
O          7.21506        13.41619        -2.79864
O         19.21293        13.46090         1.57721
O         24.38614        13.42845         2.72811
O         11.69881         8.27059         0.67096
O         28.63695        14.49533         0.02248
O         34.71230        18.67721        -0.89683
H         33.97368        18.21502        -1.35302
O         16.52511         6.02976         1.38014
H         16.23696         5.13458         1.65534
O         35.40717        19.15962         2.68157
H         35.45721        18.20918         2.95145
O         29.68793        12.64545         2.98819
H         29.48169        11.73224         3.27872
O         31.92779        17.01618        -1.05268
H         31.01276        17.23477        -1.33039
O         39.70983        17.99181         2.24541
H         39.78221        18.76663         2.84050
O         13.23200         3.61231         1.54572
H         12.44983         3.06283         1.77153
O         40.50663        10.91630        -2.96873
H         40.21032        10.03106        -3.30006
O         30.65324        12.47573        -0.58132
H         29.73342        12.32184        -0.88391
O         39.85186        14.01356         1.58056
H         40.74482        13.60874         1.54742
O         21.77798        17.33213         2.37251
H         21.66845        16.44476         2.77703
O          8.12886         6.15039        -2.14159
H          7.29458         6.63889        -2.30987
O          3.32489        11.81420        -2.43219
H          3.49781        12.67205        -2.89792
O         20.08248         9.89309        -1.68785
H         19.33371         9.47375        -2.16454
O         12.33205         5.60123        -2.47544
H         11.77467         4.84023        -2.78139
O         26.99668        14.18554         3.30302
H         26.09996        13.86197         3.56993
O         38.95176        17.77483        -1.32987
H         38.85078        17.01311        -1.93746
O          9.77332        17.42472        -3.12589
H          9.86638        16.55185        -3.57717
O         35.74348        16.32931         2.69345
H         36.58313        15.89369         2.95826
O         19.39586         4.13064         1.87870
H         19.54639         3.20816         2.17927
O         14.96728        18.72987        -3.02818
H         14.23142        18.21168        -3.41989
O         32.25920        12.49557         2.73200
H         31.46642        12.84686         3.20621
O          4.56622        14.26038        -2.88251
H          5.41025        13.95166        -3.29894
O         28.34608        16.57438         3.08132
H         27.77091        15.87929         3.48693
O         28.40160         3.26657         2.25279
H         29.21091         2.74588         2.44331
O         17.90521        14.04387        -2.38233
H         17.11618        13.91969        -2.95526
O         21.86817         8.39300         2.37902
H         22.66390         8.79009         2.79374
O         39.04117         8.60105        -2.99653
H         38.13285         8.90821        -3.20805
O         10.91653         3.29066        -2.35882
H          9.99142         3.04303        -2.57465
O         15.25325         8.16821        -2.36525
H         15.65790         7.26789        -2.41616
H          0.75107         1.58767         2.74541
H          1.06814         3.90091         3.67218
H          2.57152         0.49904         1.45312
H          1.02467         6.93420         3.17942
H          0.66417         8.93980         1.75266
H          0.37932        10.32280         0.44462
H          0.32376        12.70672         0.01852
H          0.35728        14.58267         0.03469
H          0.47539        17.01999         0.30125
H          1.78083        19.09685         0.37209
H          4.90795         0.51340         0.53019
H          3.95380        20.28907         0.17131
H          7.26667         0.42008         0.16053
H          6.37950        20.23286        -0.16585
H          9.73175         0.30601         0.07032
H          8.80562        20.17912        -0.28553
H         12.22686         0.22613        -0.15487
H         11.22735        20.17587        -0.43082
H         14.69482         0.23672        -0.28215
H         13.65687        20.24872        -0.85642
H         17.11762         0.21125        -0.06192
H         16.16177        20.28195        -0.96237
H         19.66399         0.20914         0.10250
H         18.54734        20.26534        -0.48699
H         22.15733         0.23047         0.04671
H         20.99860        20.25072        -0.26237
H         24.62732         0.25114         0.02488
H         23.45607        20.20575         0.02421
H         27.07081         0.27540        -0.14002
H         25.83787        20.21066         0.42251
H         29.52232         0.29485        -0.26143
H         28.26485        20.25898         0.78543
H         31.96680         0.31442        -0.38568
H         30.71743        20.30128         0.97449
H         34.41557         0.34753        -0.70443
H         33.16919        20.29789         1.02454
H         36.87131         0.38761        -1.05360
H         35.69254        20.29938         0.97897
H         39.32475         0.42770        -1.37912
H         38.12759        20.31763         1.15150
H         41.44796         1.69926        -1.53210
H         42.67218         3.85451        -1.47721
H         42.67789         6.30839        -1.34332
H         42.58988         8.20521        -0.72482
H         42.58921        10.63438        -0.86346
H         42.43146        12.59935        -1.82445
H         42.46808        15.02702        -1.41211
H         42.71244        16.80081        -0.43696
H         40.61581        20.40113         0.67532
H         42.62168        19.27954        -0.25603
