         232
 CSIRO Nanostructure Databank - Neutral Graphene Oxide Data Set
C        -11.13150         0.75444         0.67410
C         -9.93115         1.56078         0.52340
C         -8.63340         0.93065         0.97647
C         -7.41118         1.56277         0.34216
C         -6.21143         0.86220         0.08799
C         -5.02289         1.55504        -0.19184
C         -3.77619         0.88528        -0.73739
C         -2.54475         1.44640        -0.04962
C         -1.25709         0.79435        -0.28937
C         -0.06107         1.45547        -0.00021
C          1.18039         0.72973        -0.11903
C          2.41667         1.33463         0.37586
C          3.68435         0.69759         0.05259
C          4.98029         1.43743         0.15412
C          6.06585         0.61148         0.78821
C          7.19257         1.24442         1.27688
C          8.37429         0.45237         1.53826
C         10.29110         1.53579         1.12363
C         11.24431         0.55180         0.70110
C         -9.96886         2.86853         0.15247
C         -8.73540         3.66220        -0.20318
C         -7.44275         2.95117         0.12695
C         -6.24055         3.64501        -0.04233
C         -5.01786         2.95862        -0.11169
C         -3.72798         3.74377        -0.18465
C         -2.53879         2.91654         0.27896
C         -1.24575         3.60243         0.43667
C         -0.06034         2.87779         0.39892
C          1.18380         3.59666         0.59434
C          2.42882         2.84848         0.71629
C          3.71663         3.56106         0.67054
C          4.90183         2.84839         0.66222
C          6.14584         3.50235         0.95064
C          7.20192         2.69007         1.38827
C          9.05369         3.67725         0.98225
C         10.12611         2.81887         0.60565
C         -8.70319         5.13089         0.17756
C         -7.54028         5.83888         0.04732
C         -6.26758         5.11390        -0.34406
C         -5.02924         5.82537         0.12704
C         -3.88617         5.01668         0.68452
C         -2.57011         5.78528         0.79524
C         -1.31889         4.95540         1.12140
C          0.01145         5.80720         1.15151
C          1.24754         4.99720         0.75085
C          2.48253         5.68946         0.77594
C          3.73202         4.99790         0.74066
C          4.99111         5.66395         0.74225
C          6.22135         4.94679         0.81740
C          7.47170         5.56042         0.45248
C          8.70174         4.88949         0.35113
C         -7.45800         7.28375        -0.02424
C         -6.24841         7.92719        -0.24329
C         -4.99232         7.19465        -0.06402
C         -3.74230         7.88641        -0.12123
C         -2.50337         7.19063         0.29500
C         -1.20132         7.70551        -0.27909
C          0.02229         7.12814         0.39053
C          1.20195         7.80613         0.33384
C          2.46091         7.20308         0.94494
C          3.73038         7.84846         0.43350
C          5.00137         7.14062         0.64359
C          6.27641         7.79705         0.14175
C          7.46390         6.92593        -0.21713
C         -6.14191         9.34129        -0.52109
C         -4.93089         9.95725        -0.66477
C         -3.68234         9.24685        -0.47229
C         -2.41959         9.89737        -0.56364
C         -1.19855         9.21782        -0.39116
C          0.03683         9.86920        -0.44329
C          1.25294         9.17756        -0.17367
C          2.48174         9.81050        -0.33523
C          3.72213         9.12548        -0.11259
C          4.95062         9.73344        -0.59997
C          6.14090         9.09116        -0.55051
C        -11.10686        -0.59256         0.88828
C         -9.87743        -1.35825         0.94869
C         -8.61395        -0.59627         0.94851
C         -7.38995        -1.34753         0.46502
C         -6.27408        -0.59665        -0.18264
C         -5.08061        -1.33573        -0.72946
C         -3.76755        -0.63431        -0.74241
C         -2.59388        -1.31332        -0.87568
C         -1.30161        -0.55403        -0.89570
C          0.01390        -1.29661        -1.01811
C          1.24378        -0.61356        -0.54222
C          2.47457        -1.32134        -0.48626
C          3.70161        -0.63487        -0.31394
C          5.05085        -1.33014        -0.48664
C          5.98097        -0.87788         0.69755
C          7.32877        -1.56340         0.62577
C          8.51028        -0.85778         1.08332
C          9.80200        -1.52230         0.95784
C         11.05296        -0.80758         0.81614
C         -9.85191        -2.73989         0.90054
C         -8.63679        -3.48263         0.64904
C         -7.49679        -2.79216         0.26874
C         -6.28617        -3.54722        -0.13456
C         -5.07504        -2.83804        -0.64175
C         -3.76705        -3.54044        -0.63367
C         -2.63537        -2.79281        -1.32360
C         -1.30547        -3.54306        -1.20310
C          0.00373        -2.80318        -1.10046
C          1.20513        -3.53459        -0.56798
C          2.48781        -2.79314        -0.39773
C          3.78357        -3.51074        -0.48255
C          4.95922        -2.84331        -0.43600
C          6.29018        -3.54649        -0.59315
C          7.39234        -2.88097         0.22574
C          8.61848        -3.62839         0.41963
C          9.81078        -2.89739         0.71921
C         -8.60019        -4.94285         0.64251
C         -7.41088        -5.63415         0.60275
C         -6.12426        -4.81770         0.66865
C         -4.84078        -5.57643         0.34710
C         -3.71111        -4.87044        -0.32078
C         -2.49917        -5.65515        -0.56373
C         -1.33822        -4.98944        -0.87343
C         -0.06411        -5.74343        -0.88216
C          1.22950        -5.03262        -0.73687
C          2.51342        -5.68417        -1.15842
C          3.78351        -4.94978        -0.87758
C          5.00635        -5.72234        -0.53098
C          6.20817        -5.03422        -0.32706
C          7.36612        -5.74092         0.10682
C          8.59285        -5.02361         0.33551
C         -7.33583        -7.07316         0.60970
C         -6.15501        -7.77420         0.49478
C         -4.85199        -7.07396         0.35114
C         -3.69459        -7.81192        -0.21846
C         -2.54933        -7.11818        -0.56779
C         -1.40388        -7.86976        -1.12374
C         -0.08789        -7.17365        -1.31694
C          1.21316        -7.93390        -1.27542
C          2.58427        -7.22741        -1.26483
C          3.57949        -7.77411        -0.25828
C          4.89895        -7.09664        -0.20893
C          6.04455        -7.80982         0.22335
C          7.27031        -7.13104         0.34547
C         -6.10864        -9.21727         0.50098
C         -4.95617        -9.90676         0.26584
C         -3.71645        -9.26166        -0.13700
C         -2.57111       -10.00418        -0.34863
C         -1.37614        -9.40326        -0.94815
C         -0.06352       -10.04980        -0.81538
C          1.16254        -9.37613        -0.88527
C          2.35160       -10.01459        -0.46893
C          3.51291        -9.26436         0.00967
C          4.78264        -9.93217         0.34448
C          5.94158        -9.24143         0.47360
O          2.35984         1.83023         1.76546
O         -1.70485        -8.74790        -2.23229
O         -4.41498        -6.31408         1.55115
O          9.44868         1.10196         2.17099
O         -2.97467        -2.74907        -2.72546
H         -2.13590        -2.58160        -3.21437
O         -1.56054         4.51778         2.49010
H         -0.92245         5.07934         3.03314
O         -0.58605        -0.65661        -2.18262
O          5.47444         1.61447        -1.22432
H          5.58911         0.68050        -1.61436
O          8.26172         3.29633         2.08826
O         -6.11157        -0.82495        -1.63177
O         -4.26909         4.59833         2.01150
H         -3.42855         4.47242         2.52508
O          3.22267        -5.05443        -2.25526
O         -6.25237         5.18232        -1.82482
H         -6.24863         6.13252        -2.07302
O         -8.54170         1.30438         2.38442
H         -7.90530         0.67918         2.80183
O         -0.43528        -3.31763        -2.38560
O          8.67168         7.63830         0.08344
H          8.64858         7.87197         1.03501
O          0.63085        -5.67671         0.43528
O         -2.60109         6.90952         1.73154
O          0.56304        -7.56789        -2.54846
O          0.22573         6.15639         2.51791
O          5.61749        -0.96502        -1.71535
O         -3.45552         4.15602        -1.54188
H         -3.52604         3.35072        -2.10901
O          3.07347        -8.21383         1.01583
O          1.61910        -3.16781         0.77354
O         -8.75841         3.70788        -1.67866
H         -7.92401         4.15344        -1.97015
O         -7.58999        -1.04535         1.89942
O          2.45977         7.47301         2.36719
H          1.61274         7.03985         2.71121
O         -5.99504        -4.35058         2.03654
H         -5.57720        -5.08360         2.54549
O         -1.15613         7.19869        -1.65808
H         -1.84541         7.66679        -2.17535
O         -6.00804        -3.54418        -1.55908
O          5.95740         7.81046         1.55677
O         -2.80151         1.90965         1.31067
O          6.69564        -3.35883        -1.97545
H          6.42363        -2.41546        -2.19332
O         -3.67878         1.30116        -2.13681
H         -4.37150         0.81449        -2.63618
O          5.29035        -1.35533         1.89178
H          5.78218        -1.04466         2.68084
O          3.19081        -7.55918        -2.52757
H          2.59690        -7.23047        -3.23779
H         11.91158        -1.44534         0.54801
H         12.19377         0.90645         0.27050
H         10.77812         3.13826        -0.21986
H          9.47034         5.37155        -0.27376
H          7.46001         6.76613        -1.33138
H          7.03271         9.51413        -1.03557
H          4.87234        10.70977        -1.10088
H          2.51239        10.84636        -0.70635
H          0.07668        10.94621        -0.67018
H         -2.39931        10.98413        -0.74004
H         -4.88567        11.03048        -0.90088
H         -7.06891         9.91994        -0.64669
H         -8.38731         7.87143         0.02745
H         -9.65852         5.66466         0.30869
H        -10.93815         3.32462        -0.10726
H        -12.10203         1.26152         0.56141
H        -12.05535        -1.14697         0.95084
H        -10.80024        -3.29648         0.95460
H         -9.55212        -5.49307         0.70489
H         -8.28022        -7.63639         0.67983
H         -7.03789        -9.76349         0.72122
H         -4.96208       -11.00557         0.31371
H         -2.56104       -11.07616        -0.09960
H         -0.05815       -11.07689        -0.41694
H          2.34212       -11.10599        -0.32154
H          4.77521       -11.02616         0.46319
H          6.86648        -9.77820         0.73288
H          8.16277        -7.68406         0.67532
H          9.50841        -5.59644         0.54880
H         10.77485        -3.42879         0.68079
