         429
 CSIRO Nanostructure Databank - Neutral Graphene Oxide Data Set
C          1.15919         1.89552        -0.23945
C          1.10516         3.27418         0.00627
C          2.37331         1.26545        -0.46246
C          2.28196         4.05018         0.04926
C          1.08079         6.22561         0.36700
C          1.08193         7.64265         0.42308
C          2.24652         5.47745         0.33640
C          2.24978         8.39135         0.48700
C          1.14241        10.55464        -0.05008
C          1.20147        11.93911        -0.30578
C          2.29111         9.82938         0.25698
C          2.38314        12.65439        -0.17015
C          1.32386        14.76978        -1.23441
C          1.33210        16.09420        -1.46244
C          2.48916        14.06067        -0.64405
C          2.41203        16.98305        -0.96240
C          2.65348        18.27344        -1.63598
C          3.58512         2.01382        -0.45331
C          3.53430         3.41966        -0.18015
C          4.82004         1.38266        -0.71051
C          4.77222         4.17365        -0.15364
C          3.52064         6.14744         0.63721
C          3.50618         7.69055         0.76625
C          4.78687         5.51406         0.28050
C          4.78591         8.41298         0.61615
C          3.54363        10.54200         0.40632
C          3.57135        11.98955         0.29798
C          4.73552         9.84270         0.62366
C          4.76395        12.71957         0.53520
C          3.65919        14.86715        -0.18277
C          3.57410        16.36837        -0.22240
C          4.64660        14.22554         0.77712
C          4.84193        17.11212        -0.13890
C          3.84742        18.89909        -1.55208
C          4.98327        18.35875        -0.80615
C          6.02835         2.13103        -0.82400
C          5.97732         3.54029        -0.55606
C          7.22789         1.49243        -1.16001
C          7.16688         4.37831        -0.75049
C          6.07554         6.22041         0.65578
C          5.99375         7.73311         0.54067
C          7.26944         5.67775        -0.10146
C          7.24380         8.47849         0.51947
C          5.96200        10.57026         1.09638
C          6.00291        12.03842         0.71664
C          7.23954         9.83666         0.80276
C          7.23365        12.70450         0.67203
C          5.98779        14.97006         0.77776
C          5.99717        16.47454         0.51397
C          7.26211        14.19262         0.69049
C          7.30266        17.22063         0.50990
C          6.19923        19.04430        -0.84759
C          7.34835        18.69233         0.05565
C          8.49375         2.20336        -1.54095
C          8.45651         3.71308        -1.26944
C          9.71643         1.54990        -0.93371
C          9.71514         4.41154        -0.97250
C          8.46373         6.40412        -0.17767
C          8.48135         7.77560         0.24035
C          9.71225         5.74534        -0.58849
C          9.70954         8.50120         0.28824
C          8.50194        10.55265         1.19337
C          8.50157        12.04014         0.81655
C          9.72977         9.83562         0.70756
C          9.69388        12.74478         0.76221
C          8.49363        14.90601         0.20379
C          8.53734        16.39755         0.24779
C          9.81227        14.12678         0.14353
C          9.84213        17.08176         0.32437
C          8.69758        19.12650        -0.44986
C          9.88276        18.48455        -0.04401
C         10.92962         2.19385        -0.91450
C         10.95484         3.64542        -1.39407
C         12.14884         1.48000        -0.65443
C         12.26159         4.35381        -1.05948
C         10.96228         6.48284        -0.45656
C         10.95102         7.81550        -0.02639
C         12.22937         5.77406        -0.61294
C         12.18477         8.56883         0.06205
C         10.98852        10.54603         0.87321
C         10.97801        12.07008         0.99029
C         12.21988         9.89286         0.43593
C         12.25124        12.81490         0.81598
C         11.01352        14.92920         0.65306
C         11.01735        16.36513         0.60109
C         12.22386        14.25214         0.83900
C         12.26628        17.08073         0.75014
C         11.10104        19.18110         0.04049
C         12.25170        18.59552         0.79335
C         13.42034         2.06978        -0.68684
C         13.49986         3.54451        -0.82433
C         14.63242         1.36683        -0.50999
C         14.73347         4.19677        -0.34356
C         13.42379         6.38072        -0.31297
C         13.44818         7.84899        -0.20799
C         14.61950         5.58829         0.20530
C         14.72227         8.55362         0.09287
C         13.45771        10.73221         0.20944
C         13.45273        12.13831         0.75150
C         14.69303         9.95576         0.59947
C         14.71031        12.83933         0.86735
C         13.47852        14.95785         0.94891
C         13.46809        16.40120         0.88393
C         14.68634        14.25726         1.03488
C         14.74951        17.10715         0.84486
C         13.52032        19.17767         0.25745
C         14.73920        18.49757         0.37478
C         15.89515         2.03027        -0.43620
C         15.91590         3.49156        -0.34460
C         17.11105         1.34740        -0.34245
C         17.18888         4.17817        -0.27455
C         15.96762         6.32330         0.20838
C         15.98789         7.80213         0.30242
C         17.15120         5.66731        -0.49453
C         17.20738         8.60214        -0.02184
C         15.98252        10.68968         0.76955
C         15.95187        12.16186         0.81207
C         17.24709        10.00356         0.44556
C         17.20199        12.85758         0.83585
C         15.95291        14.97501         1.44498
C         15.93578        16.43918         1.06479
C         17.23344        14.27101         1.03556
C         17.20566        17.18314         1.15872
C         15.95858        19.11481         0.03625
C         17.21188        18.59770         0.55808
C         18.37955         2.02926        -0.30728
C         18.38347         3.49368        -0.29470
C         19.58040         1.34944        -0.36642
C         19.65301         4.21084        -0.28155
C         18.46595         6.36664        -0.22283
C         18.48097         7.85485        -0.25041
C         19.63766         5.66967        -0.21246
C         19.72806         8.57520         0.06886
C         18.44308        10.68849         0.51252
C         18.43051        12.13095         0.73818
C         19.70327         9.96112         0.39355
C         19.64981        12.82280         0.85422
C         18.45105        14.95405         1.04023
C         18.52902        16.43220         1.36771
C         19.68204        14.23813         0.94861
C         19.73382        17.09296         0.70539
C         18.49329        19.16976         0.15280
C         19.70022        18.48038         0.29556
C         20.87399         2.05700        -0.68061
C         20.85432         3.52403        -0.31380
C         22.11263         1.32938        -0.22961
C         22.11838         4.20776        -0.11030
C         20.93453         6.41825        -0.44036
C         20.92301         7.84723         0.06310
C         22.15604         5.64477        -0.02189
C         22.14207         8.51561         0.32223
C         20.92284        10.61047         0.71697
C         20.88656        12.04841         1.07790
C         22.13456         9.89586         0.66760
C         22.18767        12.81991         1.19841
C         20.94849        14.94939         0.88872
C         20.93474        16.38330         0.65464
C         22.16658        14.26352         0.88779
C         22.18184        17.05040         0.35922
C         20.92567        19.12667        -0.03993
C         22.15863        18.46301         0.03860
C         23.31073         1.99936        -0.04065
C         23.29119         3.45317         0.00395
C         24.56115         1.29885         0.15060
C         24.56635         4.13202         0.25890
C         23.34080         6.35469         0.18481
C         23.37779         7.77910         0.25394
C         24.61057         5.62574         0.35677
C         24.62606         8.47784         0.25954
C         23.43766        10.56187         0.89140
C         23.47621        12.06395         1.07721
C         24.65840         9.88354         0.41403
C         24.68703        12.79357         0.65838
C         23.41953        14.93564         0.65710
C         23.40364        16.36105         0.40144
C         24.63453        14.22188         0.60972
C         24.64340        17.06478         0.14011
C         23.37460        19.15090        -0.19440
C         24.61841        18.49203        -0.13092
C         25.81216         1.94134         0.09075
C         25.80101         3.40502        -0.15225
C         27.06357         1.30487         0.16562
C         27.08215         4.17632        -0.22750
C         25.87743         6.34481         0.09089
C         25.85668         7.76108         0.08450
C         27.08244         5.64883        -0.06491
C         27.07074         8.48340        -0.09249
C         25.85921        10.62072         0.22345
C         25.85150        12.07423         0.33043
C         27.03826         9.90167        -0.12286
C         27.04351        12.82845        -0.01210
C         25.94087        14.97558         0.65464
C         25.86598        16.39858         0.16047
C         27.07538        14.19641         0.04604
C         27.09423        17.10293        -0.06251
C         25.83276        19.20120        -0.26765
C         27.08530        18.54543        -0.20813
C         28.30964         2.01944         0.09947
C         28.33931         3.44220        -0.05174
C         29.54519         1.34424         0.22311
C         29.55287         4.16873        -0.05696
C         28.31559         6.34841        -0.19068
C         28.30633         7.76828        -0.23623
C         29.55793         5.60356        -0.20464
C         29.53753         8.49155        -0.42112
C         28.27581        10.60472        -0.48911
C         28.26350        12.09698        -0.44977
C         29.56646         9.87913        -0.46406
C         29.56148        12.75299        -0.13027
C         28.28779        14.93982        -0.46156
C         28.31419        16.41447        -0.14723
C         29.56430        14.24256        -0.05652
C         29.56180        17.10147        -0.18156
C         28.31162        19.23115        -0.31788
C         29.56608        18.56123        -0.23632
C         30.78134         2.03850         0.18544
C         30.79108         3.46894         0.02990
C         32.01558         1.35727         0.30832
C         32.02474         4.18035        -0.03425
C         30.78840         6.28086        -0.33543
C         30.76948         7.71958        -0.65542
C         32.02780         5.59890        -0.23385
C         32.09724         8.48139        -0.69611
C         30.81952        10.61582        -0.47592
C         30.82228        12.02587        -0.31646
C         32.06423         9.93595        -0.48258
C         32.03531        12.75695        -0.23762
C         30.83680        14.94982        -0.26104
C         30.78095        16.38412        -0.27293
C         32.01722        14.21053        -0.27526
C         32.04483        17.10114        -0.13026
C         30.77038        19.28107        -0.33598
C         32.06166        18.65586        -0.11747
C         33.24688         2.05276         0.29025
C         33.25250         3.47720         0.11026
C         34.48240         1.36796         0.43355
C         34.49450         4.19079         0.09412
C         33.28787         6.31332        -0.28040
C         33.32109         7.73654        -0.39770
C         34.50404         5.59974        -0.13550
C         34.53192         8.46423        -0.14530
C         33.28220        10.64154        -0.27505
C         33.26351        12.05517        -0.19606
C         34.53349         9.91790        -0.14723
C         34.55435        12.78151         0.10732
C         33.28937        14.90036        -0.55577
C         33.29154        16.42562        -0.55232
C         34.56016        14.23492        -0.30946
C         34.56749        17.11887        -0.33340
C         33.35678        19.28483        -0.44159
C         34.54389        18.58013        -0.40181
C         35.70392         2.06480         0.45895
C         35.69832         3.48228         0.32397
C         36.95667         1.35168         0.57960
C         36.97327         4.22429         0.60924
C         35.80125         6.32351        -0.42160
C         35.73645         7.77523        -0.02572
C         37.01474         5.64824         0.14992
C         36.94824         8.49674         0.47800
C         35.76760        10.61155        -0.13658
C         35.75402        12.07626        -0.51395
C         36.99151         9.95198         0.05857
C         37.03849        12.82691        -0.21816
C         35.75155        14.94470        -0.29098
C         35.74249        16.39418        -0.28080
C         37.02173        14.22145        -0.19526
C         37.00078        17.13621         0.09435
C         35.82507        19.22104        -0.62725
C         37.00936        18.53962        -0.48353
C         38.17540         1.98494         0.38437
C         38.17580         3.43987         0.11562
C         39.43343         1.30783         0.37733
C         39.49364         4.18088         0.07117
C         38.24108         6.35427         0.25170
C         38.23737         7.76074         0.26856
C         39.50660         5.63196         0.32227
C         39.46028         8.51933         0.53872
C         38.23571        10.66401         0.04191
C         38.25848        12.09049        -0.09993
C         39.47683         9.96806         0.23998
C         39.50475        12.80001        -0.06775
C         38.26613        14.97153        -0.16407
C         38.26916        16.35472        -0.14363
C         39.52066        14.22539        -0.15892
C         39.55238        17.13736        -0.00136
C         38.26955        19.16087        -0.77583
C         39.47240        18.50589        -0.65553
C         40.64089         1.98647         0.31146
C         40.72190         3.40225         0.25973
C         41.92672         4.11707         0.43489
C         40.73305         6.27340         0.48139
C         40.77155         7.75273         0.66455
C         41.93702         5.50422         0.49882
C         41.98232         8.52582         0.35165
C         40.70670        10.63941         0.18453
C         40.73334        12.07501         0.02237
C         41.93776         9.87299         0.19600
C         41.94976        12.79795        -0.01807
C         40.75687        14.91316        -0.23464
C         40.78101        16.35734        -0.40800
C         41.96054        14.17179        -0.16675
C         41.89124        17.02748        -0.85622
C         40.69562        19.14284        -1.05837
C         41.86573        18.43590        -1.12060
O         38.71443         3.82148        -1.16239
O         29.49044        13.46375         1.17176
O         11.07248        11.23733         2.20729
O         17.71711         8.42245        -1.39957
O          8.29445        15.65292        -1.04486
O         14.29485         8.44240        -1.31330
O         31.42051         8.04077        -1.92978
O         24.67025         4.78286         1.57755
O          3.70675        14.26269        -1.50353
O         40.06086         8.20089         1.86907
O          6.75776        14.67793         1.98875
O         16.19647         6.98078         1.49887
O         33.21892        15.69925        -1.80661
O         21.45313        12.41339         2.38734
O         26.32097         3.78182        -1.46255
O          3.51828         6.82694         1.95248
O         15.20817        10.09023         1.93944
O         23.67522        11.16892         2.21677
O         28.16486        11.44524        -1.73966
O          2.46496        16.99495         0.51372
O          7.58858         4.42699        -2.17628
O         13.20759         4.12319        -2.17582
O         32.15409        17.83661         1.11624
O          6.56522        17.12268         1.75123
O         17.12357        18.33331         2.04952
O         28.26702        14.85840        -1.92363
H         27.45864        15.30998        -2.24493
O          5.82090        10.57809         2.56499
H          6.73367        10.65133         2.94320
O         13.52935        10.96227        -1.23291
H         13.70840        10.08808        -1.66680
O         34.73481        12.73915         1.55101
H         33.93697        13.11839         1.97515
O          4.08774        14.37056         2.10122
H          4.82821        14.26287         2.73995
O         15.96322        14.93736         2.91295
H         15.15701        15.39571         3.23081
O          8.62171         2.02069        -2.98461
H          9.37824         2.59342        -3.27222
O         36.82690         8.50643         1.95934
H         37.68995         8.80561         2.32301
O         39.70680        17.38815         1.43937
H         38.79986        17.53567         1.80420
O         20.95431         2.03699        -2.16657
H         20.23144         2.60949        -2.50362
O         14.24410         5.37546         1.60638
H         14.78458         6.00128         2.14892
O         35.97746         6.29021        -1.90250
H         35.12708         6.56580        -2.30723
O         12.11386        18.98164         2.22183
H         12.93367        18.70067         2.68135
O         35.56631        12.13712        -1.95612
H         36.31882        11.67748        -2.38302
O          6.27901         5.92843         2.08483
H          5.48060         6.27377         2.55004
O         26.27427        15.10040         2.08824
H         26.34015        14.19367         2.45768
O         10.10695        13.87357        -1.25914
H          9.69222        14.61198        -1.76731
O         18.81546        16.49835         2.79310
H         18.47932        17.36938         3.10670
O         16.88558         5.84569        -1.91997
H         17.01454         6.80535        -2.12410
O          7.13996        19.53653         1.23983
H          6.69013        18.96269         1.90864
O         21.03900         6.52049        -1.90840
H         20.23308         6.97769        -2.23240
O         37.13323         4.24067         2.07641
H         36.39289         4.76170         2.45386
O         36.93587        17.32484         1.56417
H         36.12994        17.85218         1.75606
O          8.53593        10.52492         2.67207
H          9.44155        10.84381         2.92690
O         10.85569         3.58885        -2.85170
H         11.78647         3.59330        -3.18834
H          0.22746         1.31315        -0.25417
H          0.12917         3.74404         0.18709
H          2.41276         0.18482        -0.65966
H          0.11167         5.73038         0.21507
H          0.11400         8.14802         0.30062
H          0.17252        10.04937        -0.14837
H          0.28379        12.44361        -0.63709
H          0.47210        14.16998        -1.58680
H          0.48845        16.56790        -1.98802
H          1.85062        18.69131        -2.26215
H          4.84269         0.29955        -0.89997
H          4.00459        19.85023        -2.08220
H          7.20778         0.40554        -1.33348
H          6.24771        20.00441        -1.38316
H          9.66603         0.47703        -0.68920
H          8.76604        20.16289        -0.81746
H         12.07137         0.39746        -0.46725
H         11.14699        20.23685        -0.26466
H         14.60534         0.26940        -0.42917
H         13.52211        20.22554        -0.07828
H         17.11458         0.24688        -0.36840
H         15.95948        20.06003        -0.52576
H         19.57514         0.24964        -0.42387
H         18.49866        20.17654        -0.29017
H         22.09455         0.22858        -0.22991
H         20.90125        20.18832        -0.32671
H         24.52797         0.20240         0.24120
H         23.34574        20.23081        -0.40299
H         27.10247         0.21388         0.30455
H         25.80128        20.29251        -0.40493
H         29.55207         0.25147         0.34933
H         28.30310        20.32506        -0.43752
H         32.01770         0.26390         0.43108
H         30.73727        20.34248        -0.62541
H         34.47964         0.27254         0.53738
H         33.37630        20.36544        -0.64888
H         36.92656         0.26437         0.74664
H         35.83514        20.27254        -0.95270
H         39.43792         0.21218         0.47564
H         38.25563        20.19494        -1.15704
H         41.57877         1.41428         0.37052
H         42.87099         3.56237         0.53557
H         42.89812         6.01880         0.63360
H         42.93874         7.99911         0.22457
H         42.88106        10.39611        -0.01032
H         42.91055        12.27512         0.07112
H         42.92555        14.69565        -0.18985
H         42.81730        16.48168        -1.08770
H         40.66168        20.19555        -1.37673
H         42.79016        18.92587        -1.45696
