         344
 CSIRO Nanostructure Databank - Neutral Graphene Oxide Data Set
C          1.17435         3.71143        -0.99623
C         -0.02093         4.36737        -0.77983
C          1.15412         6.41577        -0.12978
C         -0.03302         5.70906        -0.35299
C          1.14954         7.81719         0.27477
C         -0.04939         8.52152         0.50767
C          1.15395        10.58813         0.98315
C         -0.04826         9.86242         0.87222
C          1.17594        11.99175         1.37772
C          0.02944        12.61398         1.89895
C          1.27114        14.65682         2.23378
C          0.09692        13.92036         2.38430
C          1.26417        16.96348         1.92259
C          0.07452        17.69432         1.85618
C          1.19477        19.27099         0.39891
C          0.03413        18.83580         1.06792
C          1.20489        20.59547        -0.22149
C          0.02200        21.29412        -0.49347
C          1.24970        23.38458        -0.84335
C          0.04070        22.65374        -0.79926
C          1.26702        24.81463        -1.07058
C          0.08031        25.58435        -1.03165
C          1.34836        27.61620        -1.42855
C          0.12244        26.95977        -1.16806
C          1.40540        29.06777        -1.44879
C          3.63435         3.73176        -1.01439
C          2.40941         4.38270        -0.77147
C          3.64629         6.40467        -0.09633
C          2.40723         5.74565        -0.32493
C          3.63243         7.81500         0.24124
C          2.38328         8.51162         0.41028
C          3.60777        10.63839         0.78592
C          2.37769         9.91008         0.71938
C          3.61927        12.04950         1.02424
C          2.39590        12.73616         1.29960
C          3.63138        14.91163         1.35191
C          2.43056        14.13530         1.61030
C          3.69117        16.46172         1.44473
C          2.41749        17.27914         1.17704
C          3.57700        19.07607        -0.29240
C          2.39112        18.50439         0.47284
C          3.64559        20.57525        -0.16183
C          2.46412        21.28334        -0.35358
C          3.72443        23.36640        -0.87936
C          2.48050        22.69710        -0.66544
C          3.74734        24.72745        -1.26338
C          2.51132        25.46729        -1.31449
C          3.77597        27.53771        -2.06667
C          2.52705        26.86251        -1.55793
C          3.84338        28.99800        -1.65343
C          2.59574        29.71719        -1.47091
C          6.04769         3.58617        -1.13784
C          4.87755         4.31988        -0.72110
C          6.09497         6.41047         0.00706
C          4.88356         5.68584        -0.20752
C          6.09143         7.84714         0.17819
C          4.83531         8.53250         0.37059
C          6.05295        10.65288         0.82137
C          4.83456         9.94712         0.62972
C          6.08428        12.04647         1.03883
C          4.84038        12.76986         1.08186
C          6.13695        14.86325         0.79713
C          4.81628        14.20945         1.15247
C          6.17638        16.36383         0.91824
C          4.87009        16.99594         0.63719
C          6.17248        19.09659         0.02203
C          4.88640        18.34407        -0.00910
C          6.17723        20.49543        -0.12133
C          4.92326        21.31681         0.07639
C          6.17938        23.28073        -0.80602
C          4.96542        22.66344        -0.61802
C          6.27488        24.57447        -1.58458
C          5.00603        25.41252        -1.49001
C          6.32634        27.46977        -2.03757
C          5.04967        26.75570        -1.77897
C          6.30169        28.97376        -1.92699
C          5.03122        29.65306        -1.61722
C          8.61076         3.48230        -1.09810
C          7.31896         3.79309        -0.60819
C          8.59086         6.36261        -0.13536
C          7.35091         5.76883         0.15889
C          8.58402         7.87781        -0.19301
C          7.29890         8.51717         0.28280
C          8.59052        10.59617         1.07671
C          7.30016         9.87950         0.84235
C          8.56479        12.07034         1.17593
C          7.35095        12.73115         1.20355
C          8.61983        14.91465         1.05131
C          7.33453        14.21668         1.47909
C          8.61602        16.25429         0.74765
C          7.36717        17.00626         0.66513
C          8.63039        19.11544         0.29019
C          7.39441        18.41528         0.29903
C          8.64280        20.52611         0.05037
C          7.40333        21.20641        -0.16087
C          8.60899        23.33578        -0.40268
C          7.40789        22.61163        -0.44700
C          8.61914        24.76162        -0.67956
C          7.51853        25.37815        -1.26770
C          8.94475        27.53677        -1.53708
C          7.66623        26.70240        -1.99298
C          8.72837        29.03971        -1.38362
C          7.53594        29.68310        -1.61275
C         11.00304         3.47155        -1.02282
C          9.79030         4.24056        -0.86005
C         10.98400         6.51502        -0.57786
C          9.77936         5.68201        -0.51607
C         11.07216         7.81812         0.02561
C          9.80570         8.42327         0.57703
C         11.10292        10.51457         1.12233
C          9.84353         9.96198         0.50044
C         11.09269        12.01835         1.36171
C          9.82802        12.77686         1.21508
C         11.12551        14.86952         1.02239
C          9.85976        14.16026         1.08890
C         11.13726        16.25662         0.79207
C          9.88577        16.93553         0.29865
C         11.06662        19.13619         0.65494
C          9.87659        18.43170         0.49900
C         11.08452        20.58410         0.47950
C          9.85903        21.25268         0.08938
C         11.02660        23.43379         0.03883
C          9.84413        22.67295        -0.10565
C         10.96255        24.85701         0.06019
C          9.78644        25.51548        -0.29612
C         10.86158        27.80001         0.08728
C          9.57854        27.01593        -0.21583
C         10.99648        29.18327        -0.42976
C          9.86982        29.79499        -1.00510
C         13.53906         3.56582        -1.39991
C         12.20657         3.98481        -1.51719
C         13.45353         6.60299        -0.95876
C         12.15741         6.10508        -1.23800
C         13.51022         7.90044        -0.34000
C         12.27455         8.52843         0.08640
C         13.52033        10.60035         0.68186
C         12.34304         9.87486         0.65685
C         13.55918        12.00918         1.00346
C         12.37033        12.72924         1.21371
C         13.59079        14.87142         1.09823
C         12.35545        14.15523         1.14709
C         13.56636        16.29197         1.02573
C         12.35601        16.98272         0.85428
C         13.51633        19.16338         0.95429
C         12.33489        18.44409         0.82343
C         13.47711        20.64461         1.20398
C         12.25791        21.30728         0.62114
C         13.51134        23.52559         0.52721
C         12.34571        22.69864         0.04921
C         13.45368        24.87898         0.50209
C         12.12074        25.57588         0.73205
C         13.39746        27.82788         0.39826
C         12.13407        27.09388         0.53574
C         13.41097        29.20189         0.08635
C         12.19735        29.87574        -0.24538
C         15.90814         3.83232        -1.82938
C         14.65920         4.44894        -1.57209
C         15.89711         6.57118        -1.18553
C         14.64077         5.88039        -1.30819
C         15.94276         7.94970        -0.68802
C         14.73445         8.56583        -0.23126
C         16.01996        10.58813         0.57964
C         14.73888        10.05092        -0.00788
C         16.04614        12.01616         0.85285
C         14.82606        12.72571         0.95129
C         16.06717        14.86358         0.77603
C         14.81617        14.14468         1.05599
C         16.09773        16.34090         0.85144
C         14.83868        17.04311         1.29373
C         15.97814        19.21156         0.78506
C         14.80035        18.50814         0.94670
C         15.97310        20.66786         0.75393
C         14.77310        21.35094         0.89270
C         16.03409        23.50191         0.68219
C         14.75329        22.83763         1.07518
C         15.94714        24.91061         0.19094
C         14.72309        25.65795         0.76062
C         15.92945        27.87531         0.64785
C         14.68978        27.08292         0.17663
C         15.90361        29.27037         0.06409
C         14.66305        29.88818        -0.10133
C         18.35198         3.93120        -2.25333
C         17.11361         4.54760        -1.84634
C         18.42098         6.61866        -1.22888
C         17.10215         5.92288        -1.47977
C         18.31821         8.12594        -1.44550
C         17.14852         8.66200        -0.66063
C         18.54021        10.70672         0.01110
C         17.29641         9.90019         0.10456
C         18.59130        11.96661         0.56702
C         17.37591        12.65239         1.16612
C         18.62981        14.86694         0.83085
C         17.36966        14.11416         0.73656
C         18.57282        16.34607         1.11115
C         17.26607        17.02656         0.76440
C         18.52501        19.24325         0.68902
C         17.25194        18.49162         0.38933
C         18.48772        20.66668         0.66779
C         17.23796        21.37166         0.67077
C         18.47706        23.54928         0.44035
C         17.23206        22.80613         0.59503
C         18.46481        24.98120         0.33311
C         17.22311        25.70481         0.33201
C         18.41975        27.83209         0.19404
C         17.20232        27.09598         0.34000
C         18.37204        29.25694        -0.01018
C         17.12179        29.93145        -0.13583
C         19.51715         4.65922        -2.37491
C         20.72786         6.81105        -2.13986
C         19.57869         6.02872        -2.00086
C         20.78333         8.13888        -1.68126
C         19.64660         8.81757        -1.18971
C         20.91527        10.89552        -0.64515
C         19.70177        10.10845        -0.62332
C         21.01762        12.09504        -0.03097
C         19.91616        12.67218         0.81199
C         21.03441        14.97698         0.67800
C         19.84462        14.20424         0.74677
C         20.99605        16.37743         0.58820
C         19.80984        17.10067         0.71196
C         20.95716        19.31199         0.77053
C         19.75696        18.54898         0.71747
C         20.93220        20.69092         0.72004
C         19.71481        21.40697         0.64472
C         20.91279        23.60106         0.44116
C         19.70385        22.85257         0.50857
C         20.90530        24.97459         0.33409
C         19.68924        25.70564         0.28543
C         20.85423        27.90878         0.00472
C         19.66848        27.14878         0.16135
C         20.80465        29.29267        -0.14841
C         19.58167        29.96428        -0.17620
O          6.26824        28.28658        -3.28024
O         11.20790        27.74146         1.50881
O         16.66084        14.36288        -0.51763
O          4.81425        17.09176        -0.83727
O          1.30646        15.91556         2.85402
O         11.04949        11.02314         2.46597
O          7.33411         4.46230         0.63765
O          7.97195         9.92639         2.22141
O         12.04435         5.17701        -2.26476
O         16.77372         9.75724         1.50104
O          4.05225        16.75855         2.82035
H          3.32087        16.42885         3.38921
O         14.88517        25.74502         2.19524
H         14.72679        24.83401         2.56764
O          3.26558        18.87908        -1.71108
H          3.56916        17.96940        -1.93888
O         14.72211        10.63333        -1.36526
H         13.85944        10.40896        -1.77527
O          9.94698        10.41745        -0.87320
H          9.43880         9.79935        -1.45584
O         20.26286        12.39112         2.21240
H         19.43979        12.56110         2.73445
O         14.73943        27.07381        -1.27824
H         14.93198        26.16163        -1.60753
O         14.64697        23.06373         2.55291
H         13.99059        22.39205         2.88694
O         15.91935        28.11108         2.07355
H         15.71675        27.25236         2.52047
O         15.73207        24.69567        -1.26028
H         16.54658        24.28428        -1.62085
O         12.66123        22.47903        -1.39092
H         11.91505        21.97068        -1.77660
O          3.64235        27.55004        -3.52706
H          4.48971        27.92645        -3.87038
O         17.20906        18.47430        -1.08947
H         16.44097        17.92643        -1.35949
O         18.01990         8.32428        -2.85889
H         17.89266         9.28350        -3.01336
O          8.63586        27.29161         0.84473
H          9.14875        27.32722         1.68271
O          8.72983         8.22564        -1.61680
H          7.93509         7.89567        -2.08700
O          9.72824         7.99270         1.94319
H          9.03902         8.54020         2.40037
O          6.35985        24.14130        -2.98394
H          6.85480        24.84373        -3.47411
O         11.90023        25.34926         2.16095
H         11.46596        26.15917         2.51693
O          7.18257        14.39791         2.90964
H          7.90654        13.91225         3.35743
O         18.55923        16.44573         2.61167
H         19.39978        16.04748         2.92824
O         17.53358        12.64361         2.63003
H         17.33263        11.72710         2.92530
O          7.89749        26.33990        -3.39633
H          7.50200        27.07597        -3.92817
O          4.92006        21.61429         1.53179
H          5.72392        22.14539         1.71965
O          9.91592        16.77359        -1.17169
H          9.78102        15.82081        -1.36364
O         18.72851         6.41278         0.18226
H         18.78370         5.44713         0.33967
O         14.95882        17.02061         2.77253
H         15.90100        17.18365         2.99954
O          9.97840        27.36767        -2.52272
H          9.58371        26.85623        -3.27197
O         13.30703        20.75678         2.70159
H         13.86668        20.05737         3.10549
O          6.31138        14.62012        -0.63456
H          5.76129        15.28158        -1.11393
H          1.18680         2.66679        -1.33857
H         -0.97482         3.84812        -0.94778
H         -1.00575         6.19658        -0.20474
H         -1.01668         8.01026         0.41384
H         -1.01273        10.35642         1.05123
H         -0.91110        12.05779         2.00239
H         -0.76558        14.37588         2.88732
H         -0.79235        17.38164         2.45171
H         -0.88713        19.43149         1.02916
H         -0.94820        20.78013        -0.44714
H         -0.91417        23.15804        -0.99839
H         -0.88576        25.09818        -0.84110
H         -0.79862        27.55331        -1.07789
H          0.46487        29.62743        -1.33972
H          3.61508         2.70645        -1.41349
H          2.64050        30.81203        -1.37099
H          5.91597         2.84817        -1.94397
H          5.06697        30.72983        -1.38918
H          8.71573         2.59622        -1.74410
H          7.46708        30.76435        -1.41861
H         10.95746         2.40807        -0.74192
H          9.86696        30.88510        -1.15510
H         13.75445         2.52120        -1.12868
H         12.25639        30.92437        -0.57384
H         15.92647         2.75444        -2.05010
H         14.62718        30.93742        -0.43506
H         18.33504         2.87144        -2.54682
H         17.12344        30.99178        -0.43397
H         20.41825         4.18139        -2.78920
H         21.63399         6.36140        -2.57418
H         21.76170         8.64012        -1.68750
H         21.77956        10.51695        -1.20920
H         21.97087        12.63929        -0.08943
H         22.01002        14.47816         0.61219
H         21.94335        16.90200         0.39868
H         21.92814        18.80349         0.83629
H         21.88952        21.22777         0.73603
H         21.88234        23.08825         0.48182
H         21.86675        25.50373         0.29584
H         21.83326        27.41162        -0.01005
H         21.73933        29.85765        -0.27124
H         19.55344        31.05208        -0.33336
