         651
 CSIRO Nanostructure Databank - Neutral Graphene Oxide Data Set
C          5.95323        31.71599         0.28813
C          5.90781        33.07154         0.23311
C          8.44356        27.41999         0.67499
C          8.41853        28.83341         0.61872
C          7.20557        29.57013         0.44469
C          8.43936        31.67000         0.22978
C          7.19619        30.95588         0.25887
C          8.46288        33.09493        -0.16952
C          7.08529        33.87680        -0.14293
C          8.36982        36.02879        -0.05676
C          7.17106        35.30494         0.08765
C          8.34941        37.45703         0.06386
C         10.96835        23.10746         0.87093
C         10.92543        24.53644         0.95385
C          9.70054        25.27392         0.83732
C         10.86318        27.43943         1.05144
C          9.65059        26.69435         0.87551
C         10.87743        28.83554         0.94999
C          9.64555        29.57041         0.75111
C         10.83932        31.77590         0.79726
C          9.61020        30.98326         0.60272
C         10.88577        33.12829         0.18364
C          9.69012        33.90454        -0.09930
C         10.82081        36.18683        -0.17550
C          9.64467        35.32136        -0.21266
C         10.76988        37.54081         0.14210
C          9.52012        38.25153         0.14945
C         10.79047        40.41950         0.18534
C          9.56379        39.67305         0.19558
C         10.82677        41.83043         0.12953
C         13.29368        18.69569         1.18024
C         13.37556        20.21382         1.07283
C         12.19104        20.93560         0.94261
C         13.41431        23.03507         1.20674
C         12.17244        22.36184         0.98743
C         13.36534        24.48921         1.43331
C         12.12543        25.22762         1.23158
C         13.32430        27.33581         0.66065
C         12.15173        26.72567         1.43589
C         13.35595        28.83696         0.80362
C         12.15799        29.53037         0.92348
C         13.38778        31.67791         0.51079
C         12.15506        31.00823         0.92656
C         13.39317        33.01468         0.14666
C         12.12348        33.55930        -0.22781
C         13.30854        36.12696         0.09365
C         12.14174        35.65867        -0.42767
C         13.32135        37.52084         0.57323
C         12.00938        38.27613         0.47597
C         13.28874        40.39669         0.19963
C         12.05122        39.72833         0.27733
C         13.30792        41.83551         0.05464
C         12.05518        42.55253         0.08358
C         13.30216        44.68748        -0.05147
C         12.08684        43.96550         0.04380
C         13.34263        46.10436        -0.03825
C         15.90550        14.40768         1.14635
C         15.84271        15.82011         0.96083
C         14.61988        16.55059         1.02321
C         15.81534        18.65296         0.81395
C         14.59960        17.94358         0.99175
C         15.87148        20.11596         1.10289
C         14.61562        20.90174         1.18175
C         15.92095        23.07610         1.29158
C         14.63311        22.32045         1.25213
C         15.94194        24.52626         1.03542
C         14.71175        25.27710         1.33790
C         15.83675        27.36442         0.74085
C         14.66166        26.69313         0.96452
C         15.83898        28.79653         0.54819
C         14.62509        29.48551         0.61573
C         15.86862        31.70179         0.09941
C         14.59638        30.91612         0.29289
C         15.80930        33.16386         0.27852
C         14.60559        33.81693         0.12024
C         15.79131        36.03120        -0.08190
C         14.54145        35.31577         0.44931
C         15.80191        37.54054         0.16040
C         14.57917        38.26405         0.33876
C         15.78826        40.34155        -0.13953
C         14.53089        39.65371         0.20794
C         15.78703        41.83175        -0.29446
C         14.51530        42.55345        -0.09538
C         15.78003        44.67465        -0.35843
C         14.54422        43.96639        -0.15335
C         15.77044        46.07090        -0.43534
C         14.55440        46.80730        -0.18551
C         15.78386        48.96316         0.00642
C         14.59150        48.22292         0.00770
C         15.83685        50.32913         0.32543
C         18.38061        10.14475         0.80909
C         18.39888        11.52372         1.01351
C         17.21567        12.28356         1.58641
C         18.33784        14.46439         0.99295
C         17.12853        13.74526         1.18410
C         18.32321        15.85199         0.74265
C         17.05990        16.53586         0.74716
C         18.22724        18.65307         0.14446
C         17.01644        17.94977         0.63510
C         18.23014        20.14463         0.08048
C         17.16244        20.85168         0.85164
C         18.34266        23.10671         0.37119
C         17.22553        22.34981         0.96485
C         18.35880        24.49582         0.42970
C         17.12903        25.18673         0.77590
C         18.37439        27.40129         0.36040
C         17.13958        26.66521         0.82027
C         18.24842        28.80949        -0.03996
C         17.08117        29.48259         0.22755
C         18.32518        31.64812        -0.16445
C         17.13543        30.97085         0.46227
C         18.33464        33.12976        -0.02742
C         17.10302        33.88024         0.40819
C         18.27896        36.09976        -0.07378
C         17.06691        35.40702         0.49016
C         18.27989        37.48174        -0.08044
C         17.03323        38.21102         0.08376
C         18.28942        40.32737        -0.03197
C         17.07714        39.63991         0.03641
C         18.32553        41.82970         0.18942
C         17.05923        42.56510        -0.19425
C         18.30047        44.64360        -0.50127
C         17.05445        43.94130        -0.36471
C         18.31198        46.07005        -0.99820
C         17.00174        46.82582        -0.76830
C         18.31850        48.98904        -0.22884
C         17.02616        48.30690        -0.46795
C         18.33053        50.32973         0.21372
C         17.06651        51.04950         0.41963
C         18.27777        53.12493         1.09460
C         17.06232        52.41529         0.69492
C         18.34580        54.59760         1.19588
C         20.83106         5.87651        -0.04088
C         20.81200         7.30289         0.19609
C         19.60716         8.00381         0.39955
C         20.81455        10.14273         0.46025
C         19.58328         9.41877         0.53688
C         20.79682        11.56819         0.52398
C         19.60554        12.24295         0.83676
C         20.71616        14.42050         0.35950
C         19.64359        13.71830         1.19213
C         20.87215        15.90468         0.77375
C         19.55174        16.62418         0.54495
C         20.74972        18.77848         0.05422
C         19.53398        17.95941         0.18917
C         20.76817        20.13775        -0.14006
C         19.49742        20.88770        -0.23969
C         20.79421        23.10827        -0.26075
C         19.50975        22.38168        -0.17492
C         20.76342        24.50641        -0.21811
C         19.57553        25.23618         0.07822
C         20.76049        27.39963        -0.32474
C         19.59808        26.65522        -0.00120
C         20.74190        28.79186        -0.64126
C         19.37878        29.46157        -0.81370
C         20.59665        31.67714        -1.11398
C         19.40663        30.96232        -0.60474
C         20.65044        33.13026        -0.98358
C         19.41420        33.87335        -0.73672
C         20.69308        36.09054        -0.69506
C         19.42162        35.37239        -0.62426
C         20.73549        37.44334        -0.45031
C         19.51977        38.20827        -0.23739
C         20.79953        40.35113        -0.13496
C         19.51941        39.60153        -0.11202
C         20.77160        41.80804        -0.41178
C         19.58353        42.50855        -0.30875
C         20.75428        44.67703        -0.53019
C         19.52982        43.95065        -0.48066
C         20.74642        46.09876        -0.48839
C         19.55558        46.83627        -0.57723
C         20.75293        49.00182        -0.26473
C         19.53716        48.27220        -0.39783
C         20.78700        50.33967         0.15736
C         19.56949        50.99421         0.43481
C         20.86268        53.13817         0.99195
C         19.58017        52.34850         1.02304
C         20.76916        54.59995         0.58615
C         19.53453        55.30430         1.12941
C         20.78829        57.43283         1.46712
C         19.58029        56.70792         1.37113
C         20.83414        58.81370         1.70622
C         23.20114         3.12721        -0.93024
C         22.01085         3.76950        -0.61949
C         23.31481         5.79562        -0.07961
C         21.99601         5.14246        -0.22360
C         23.31955         7.29683         0.04693
C         22.04331         8.03158         0.20370
C         23.30375        10.15571         0.52167
C         22.05781         9.42096         0.42043
C         23.26921        11.51871        -0.10818
C         22.04094        12.31070         0.32548
C         23.31362        14.42465         0.37609
C         22.03428        13.67383         0.33361
C         23.37927        15.95244         0.26359
C         21.98791        16.58091        -0.04004
C         23.33954        18.77614        -0.13969
C         22.05353        18.07817         0.20778
C         23.29794        20.23040        -0.38772
C         22.04953        20.95199         0.06171
C         23.20913        23.04488        -0.74830
C         22.01647        22.38681        -0.42813
C         23.16658        24.51758        -1.08222
C         22.05287        25.21350        -0.33090
C         23.26415        27.41056        -0.85132
C         22.05973        26.71657        -0.35834
C         23.21981        28.79820        -1.06165
C         21.92612        29.46627        -0.99127
C         23.14253        31.65672        -1.61097
C         21.85901        30.89585        -1.37681
C         23.21573        33.10756        -1.26271
C         21.90588        33.84123        -1.00853
C         23.17295        36.00802        -1.36589
C         21.87258        35.32260        -1.17725
C         23.28872        37.38653        -0.79637
C         22.05079        38.11928        -0.37437
C         23.24554        40.33247        -1.01923
C         22.09164        39.62070        -0.30614
C         23.27313        41.80634        -0.66592
C         22.05834        42.47293        -0.51554
C         23.33829        44.64955        -0.38782
C         22.01989        43.93322        -0.31500
C         23.28116        46.08125        -0.78451
C         22.04485        46.80802        -0.34897
C         23.25181        49.06782        -0.80585
C         22.04496        48.29366        -0.37320
C         23.19401        50.56845        -0.53831
C         22.15926        50.92300         0.54378
C         23.34311        53.24136         0.31523
C         22.15346        52.43739         0.73674
C         23.27108        54.67531         0.54727
C         22.08326        55.30862         0.82658
C         23.34250        57.46553         1.43719
C         22.06420        56.68321         1.37705
C         23.30676        58.92600         1.57998
C         22.05762        59.56751         1.76754
C         23.26753        61.67615         1.99309
C         22.06260        60.97292         1.96812
C         24.45690         3.77561        -0.90274
C         25.79790         5.81737        -0.41634
C         24.56550         5.12640        -0.54343
C         25.84007         7.23094        -0.24250
C         24.53235         7.86826        -0.65036
C         25.78427        10.16611         0.44393
C         24.53667         9.62409         0.93418
C         25.79033        11.56652         0.14354
C         24.57324        12.23923         0.04198
C         25.83076        14.38986        -0.16177
C         24.58752        13.68770         0.16212
C         25.76801        15.76565        -0.66512
C         24.42786        16.49608        -0.72700
C         25.73852        18.66846        -0.76244
C         24.54768        17.99953        -0.51972
C         25.68467        20.14058        -0.97074
C         24.43569        20.90221        -0.73808
C         25.67382        23.07631        -0.97179
C         24.46247        22.35890        -0.85406
C         25.69719        24.54047        -0.96868
C         24.48534        25.24848        -0.93913
C         25.72062        27.38944        -1.06655
C         24.48679        26.67530        -0.95919
C         25.68107        28.81087        -1.23193
C         24.46143        29.48702        -1.32545
C         25.69785        31.74806        -1.62286
C         24.46192        30.93545        -1.65246
C         25.66713        33.12865        -1.80184
C         24.43805        33.84059        -1.64602
C         25.52982        36.02189        -2.02386
C         24.43650        35.25155        -1.61583
C         25.32017        37.44778        -2.06359
C         24.44732        38.15479        -1.26908
C         25.83920        40.38197        -1.12177
C         24.58666        39.58506        -0.75807
C         25.80669        41.77433        -0.77921
C         24.55786        42.48279        -0.64324
C         25.80636        44.61525        -0.64017
C         24.59159        43.90005        -0.60640
C         25.87938        46.08382        -1.05296
C         24.54212        46.82492        -1.04158
C         25.72247        48.98415        -0.26449
C         24.54306        48.33913        -0.96438
C         25.72545        50.49036        -0.31597
C         24.55103        51.18980        -0.26079
C         25.81410        53.38569        -0.26446
C         24.52435        52.62556        -0.03346
C         25.81890        54.77866         0.28469
C         24.53039        55.45966         0.40455
C         25.85125        57.57844         1.04958
C         24.55789        56.90085         0.78764
C         25.78944        58.93206         1.42588
C         24.54106        59.63118         1.59060
C         24.49367        61.03033         1.81385
C         26.97098         7.97472         0.11183
C         28.21732        10.13833         0.20436
C         27.00149         9.41549         0.28537
C         28.28317        11.56671         0.18872
C         27.04024        12.28526         0.11961
C         28.29497        14.47925         0.19370
C         27.03243        13.69259        -0.06881
C         28.33515        15.79335        -0.57535
C         27.05283        16.53333        -0.83333
C         28.25029        18.71640        -0.66650
C         27.01370        18.00359        -0.82912
C         28.19910        20.17475        -0.55899
C         26.96583        20.90641        -0.90431
C         28.09641        23.08048        -0.55422
C         26.93241        22.38738        -0.79832
C         28.25135        24.51127        -1.01940
C         26.93355        25.26532        -0.96370
C         28.24001        27.39334        -1.07118
C         26.95870        26.66772        -1.01899
C         28.23932        28.80462        -1.29491
C         26.96525        29.56618        -1.22352
C         28.23329        31.81411        -1.75197
C         26.98346        31.06115        -1.43771
C         28.22885        33.16869        -1.95645
C         26.92058        33.88412        -2.14433
C         28.15889        36.25570        -2.60446
C         26.85119        35.39821        -2.37038
C         28.28641        37.64380        -1.95215
C         27.22013        38.50664        -2.03030
C         28.33679        40.37997        -1.01053
C         27.08796        39.76836        -1.36481
C         28.31584        41.78955        -0.68190
C         27.03622        42.48985        -0.63578
C         28.26885        44.63135        -0.24348
C         27.01322        43.89944        -0.49452
C         28.28821        46.12386        -0.19403
C         27.00393        46.85722        -0.38685
C         28.24806        48.97683         0.14848
C         27.05239        48.31943        -0.51698
C         28.30726        50.43357        -0.32200
C         27.01444        51.14251         0.05371
C         28.33519        53.34722         0.21080
C         27.03507        52.61895         0.19888
C         28.28499        54.73438         0.35726
C         27.03430        55.45803         0.47989
C         27.03602        56.84518         0.85232
C         29.51733        12.28885         0.14856
C         30.78315        14.44682         0.08620
C         29.58990        13.70487         0.06420
C         30.82521        15.89912         0.06236
C         29.58890        16.57292        -0.43506
C         30.70821        18.76758        -0.21273
C         29.46487        18.03426        -0.44750
C         30.56093        20.23350        -0.00257
C         29.26760        20.89457        -0.09865
C         30.46559        23.10625         0.48705
C         29.21539        22.36034         0.08280
C         30.65242        24.44087        -0.13020
C         29.37996        25.29443        -0.30696
C         30.66269        27.46854        -0.93591
C         29.46572        26.70491        -0.91022
C         30.64104        28.88190        -1.02302
C         29.42507        29.55454        -1.28306
C         30.63718        31.79322        -1.16412
C         29.51097        30.97882        -1.83341
C         30.81978        33.18724        -1.87271
C         29.47709        34.05057        -1.72515
C         30.58729        36.25429        -2.38026
C         29.44184        35.46171        -2.37275
C         30.74429        37.60105        -1.90364
C         29.54310        38.26765        -1.58756
C         30.81964        40.27755        -0.85284
C         29.52451        39.63747        -1.14447
C         30.80157        41.76203        -0.58898
C         29.52111        42.46986        -0.62102
C         30.69259        44.73772        -1.00966
C         29.56186        43.92687        -0.40933
C         30.81708        46.14822        -0.40886
C         29.59172        46.84716        -0.23603
C         30.76572        48.97623         0.09079
C         29.55551        48.24268        -0.05649
C         30.72796        50.41267         0.25750
C         29.55817        51.16503         0.12724
C         29.53029        52.57834         0.25294
C         31.95722        16.64562         0.32341
C         33.15628        19.01410         0.36451
C         31.88622        18.14849         0.54012
C         33.03108        20.37346         0.46619
C         31.69358        20.94757         0.56228
C         33.07995        22.80803         0.62633
C         31.69177        22.30086         0.66800
C         33.20393        24.15255        -0.03118
C         31.92081        24.68610        -0.56402
C         33.04139        27.43876        -0.18308
C         31.96992        26.86939        -0.85417
C         32.97000        28.89151        -0.13346
C         31.86558        29.59076        -0.72745
C         33.05242        31.67591        -0.44538
C         31.90737        30.99642        -0.87043
C         33.17876        33.10084        -0.76772
C         32.07484        33.86954        -1.33383
C         33.41172        35.97406        -1.08925
C         32.44140        35.13332        -1.73938
C         33.38384        37.45995        -1.28196
C         32.11033        38.22844        -1.68586
C         33.30899        40.41728        -0.84055
C         32.09355        39.76651        -1.52259
C         33.29928        41.85151        -0.69900
C         32.03380        42.54721        -0.85414
C         33.67365        44.93546        -0.40029
C         31.92773        43.89122        -1.10951
C         33.31173        46.19558         0.10968
C         32.03952        46.84933        -0.12631
C         31.97003        48.24363         0.13973
C         33.97714        21.55655         0.45478
C         35.12607        23.32849         1.99545
C         34.03167        22.37697         1.74551
C         35.21898        24.59468         1.46403
C         34.27509        25.16309         0.43980
C         35.16267        27.41736         1.03558
C         34.18273        26.68669         0.38295
C         35.07080        28.91793         1.24369
C         34.06987        29.61648         0.36097
C         35.27973        31.75944         0.68902
C         34.14459        31.00376         0.16095
C         35.24863        33.17355         0.69827
C         34.33678        33.89298        -0.19915
C         35.26949        36.11532         0.55400
C         34.31144        35.36393        -0.22878
C         35.33556        37.48251         0.43682
C         34.61556        38.20253        -0.70661
C         35.47799        40.34541         0.28103
C         34.39499        39.67344        -0.39316
C         35.50143        41.75369         0.33428
C         34.44689        42.54522        -0.16059
C         34.50123        43.95476         0.15376
C         36.27016        25.43878         1.96297
C         37.30987        27.61221         2.36160
C         36.27263        26.80156         1.75440
C         37.40753        28.97107         2.16854
C         36.44787        29.58530         1.17366
C         37.42913        31.81047         1.85192
C         36.34726        31.08278         1.31425
C         37.41712        33.20790         1.67670
C         36.27284        33.91424         1.30589
C         37.03588        36.15688         2.47364
C         36.10755        35.37714         1.53936
C         37.16822        37.57448         2.12986
C         36.34230        38.21071         1.19662
C         36.46176        39.61032         0.98394
C         38.36294        29.79432         2.85948
C         39.19361        31.94435         3.70576
C         38.41221        31.17785         2.73328
C         39.21979        33.28562         3.99780
C         38.62356        34.31972         3.16037
C         38.01021        35.50336         3.42918
O         27.42670        46.46989         0.97839
O         22.80863        33.39031         0.12408
O         30.96086        40.77225         0.50410
O         22.26206        35.84202        -2.50906
O         21.74266        52.83079         2.10311
O         15.18600        31.18567        -1.06393
O         14.12670        24.93862         2.61861
O         22.39926        25.93761         0.87319
O         32.12470        25.66754        -1.52579
O         26.75918        34.45727        -3.49914
O         27.04733        30.49114        -0.05094
O         26.91489        51.76669         1.38122
O         26.41120        15.88218        -2.00342
O         18.10805        33.44935         1.39814
O          7.70013        33.38862        -1.37341
O         22.94120        37.48431         0.63334
O         12.59049        37.85175         1.78621
O         31.03086        19.65934        -1.31593
O         24.35829        56.55284        -0.62518
O         17.83003        19.37871        -1.09804
O         21.72030        40.09129         1.01395
O         18.89517        52.45393         2.29829
O         28.16712        14.81678         1.56241
O         29.42491        22.88171         1.49228
O         16.88356        20.28866         2.17064
O         12.18512        34.51725        -1.23325
O         11.48061        31.61902         2.09623
O         22.87296        56.74896         2.62700
O         18.05939        27.22915         1.80968
O         19.28928        21.66631        -1.47625
O         16.88937        22.74891         2.33034
O         24.44328         8.55200        -1.65781
O         15.73433        40.95549        -1.50088
O         20.94031        31.17824        -2.50418
O         22.73020        44.38942         0.90982
O         23.70443        46.33325        -2.15622
O         26.17715        38.16409        -2.88573
O         18.96223        34.67523        -1.90505
O         24.06470        13.99988         1.57165
O         22.87435        18.54798         1.30378
O         33.03274        44.57081        -1.62054
O         29.20419        15.89198        -1.72526
O         35.66997        35.73830         2.90010
O         16.82356        47.80999        -1.85148
O         38.60446        33.92388         1.80677
O         34.36547        24.43114        -0.83806
O         29.08096        44.21081         0.93609
O         23.59054         6.45023         1.21083
O         22.27586        47.53986         0.88983
O         34.42193        33.32014        -1.55399
O         23.87764        48.89487        -2.13180
O         23.70313        31.28793        -2.89341
O         31.75823        35.64516        -2.83220
O         26.38990        20.50509        -2.20873
O         33.13413        37.86792        -2.67232
O         15.77347        35.83433        -1.50953
H         16.61672        36.16483        -1.88807
O         22.56583        50.31033         1.77064
H         22.18596        50.84045         2.50695
O         30.26747        44.96908        -2.39530
H         31.03755        45.33759        -2.88040
O         20.57220        54.55730        -0.86467
H         20.55311        55.47877        -1.19875
O         34.60782        29.11029         2.61600
H         33.71818        28.70733         2.69661
O         17.09472        35.73302         1.91464
H         17.73094        35.10541         2.33202
O         31.04412        32.98875        -3.28266
H         31.34824        33.85334        -3.64890
O         25.99451        53.51718        -1.71723
H         25.32241        54.15356        -2.04394
O         29.33659        34.45994        -0.33623
H         29.45252        33.65434         0.22991
O         24.57082         8.65266         1.87690
H         25.48643         8.33670         2.01774
O         18.45678        45.93241        -2.45479
H         18.04810        46.74159        -2.84560
O         19.93015        13.75998         2.62134
H         19.14961        13.35123         3.07252
O         22.93526        40.21654        -2.43170
H         23.66262        40.62172        -2.94900
O         28.34375        50.38506        -1.77138
H         28.35483        51.30336        -2.11434
O         23.86615        16.40362         1.53019
H         23.17322        16.21297         2.20591
O         12.30271        18.18657         0.27662
H         12.64098        18.28190        -0.63710
O         13.08198        27.04310        -0.74976
H         13.69079        27.59326        -1.28707
O         28.15925        36.53614        -4.03249
H         27.80281        35.73678        -4.48460
O         26.29498        46.03720        -2.44877
H         25.47643        45.94967        -2.98993
O         23.07116        11.31414        -1.55245
H         22.90619        12.18788        -1.96544
O         19.03042        29.25580        -2.21796
H         19.64733        29.82703        -2.74302
O         17.41398        12.29379         3.02671
H         17.50155        11.36439         3.32557
O         21.24290        16.00842         2.15996
H         20.74220        15.32211         2.67125
O         20.16938        14.32823        -0.97922
H         20.60644        15.02049        -1.53614
O         35.60134        38.20045        -1.78438
H         35.10035        38.28148        -2.62784
O         25.42199        48.66520         1.13935
H         26.15531        49.04887         1.68437
O         21.56915        16.45626        -1.41678
H         22.31955        16.68153        -2.02067
O         28.65634        24.42220        -2.41622
H         27.99095        23.88895        -2.90007
O         12.39416        26.99959         2.83809
H         11.75854        26.48184         3.37361
O         18.38771        41.97879         1.65981
H         19.26001        41.63882         1.95744
O         23.97980        16.31105        -2.09977
H         24.80341        16.33637        -2.65357
O         30.14576        32.06261         0.19005
H         29.72691        31.24250         0.53219
O         22.14631        21.10208         1.51736
H         22.41089        20.21394         1.87270
O         28.03084        49.00505         1.59310
H         27.96689        48.05635         1.87239
O         22.68551        51.18475        -1.74679
H         23.16200        50.76719        -2.50016
O         33.54428        21.78817         2.91602
H         32.81630        21.17330         2.68512
O         28.93644        25.55141         1.05024
H         28.89437        24.67929         1.51813
O         14.49722        35.34812         1.89606
H         15.41202        35.48587         2.25011
O         32.02309        40.29331        -2.87220
H         32.61236        39.73974        -3.43175
O         31.50003        18.29632         1.95233
H         32.05147        17.68685         2.48686
O         29.75385        30.72554        -3.23319
H         30.14607        31.53480        -3.64281
O         22.78281        24.62821        -2.49448
H         23.41262        24.09495        -3.02389
O         36.96297        29.33061        -0.16064
H         37.82762        29.78263        -0.24894
O         17.23371        31.08484         1.90941
H         18.05636        30.64253         2.20630
O         24.75216        39.47704         0.67877
H         24.07279        38.84552         1.02990
H          5.02921        31.15470         0.49480
H          4.95819        33.59718         0.41526
H          7.50456        26.86365         0.53351
H          6.24941        29.02500         0.45902
H          6.27968        35.82300         0.47347
H          7.36674        37.95234         0.10490
H         10.02551        22.56192         0.71892
H          8.76781        24.71492         0.67404
H          8.61691        40.23424         0.17204
H          9.88192        42.39465         0.11342
H         12.91293        18.46618         2.21435
H         11.24416        20.38895         0.82316
H         11.13899        44.52346         0.07950
H         12.41026        46.66816         0.11416
H         14.97381        13.84742         1.31781
H         13.67597        16.00227         1.15902
H         13.65106        48.73516         0.26197
H         14.90232        50.85522         0.57287
H         17.43487         9.58910         0.90896
H         16.25058        11.75294         1.35571
H         16.10632        52.96085         0.69912
H         17.41387        55.13583         1.43187
H         19.86289         5.36053        -0.13423
H         18.66084         7.44474         0.45207
H         18.63277        57.23362         1.56794
H         19.88529        59.36075         1.81652
H         23.16796         2.07188        -1.23699
H         21.05805         3.22689        -0.70204
H         23.25260        62.76261         2.15972
H         21.11095        61.50480         2.10963
H         25.35762         3.21509        -1.19128
H         26.73808         5.24401        -0.45018
H         26.72471        59.49518         1.56543
H         25.42902        61.60704         1.84587
H         27.93055         7.43982         0.21000
H         29.15602         9.56937         0.11645
H         29.22311        55.30217         0.45323
H         28.00479        57.34174         1.01363
H         30.45538        11.71237         0.20949
H         31.74414        13.90988         0.16128
H         31.67267        50.92782         0.49374
H         30.48252        53.10510         0.42695
H         32.87942        16.12562         0.63355
H         34.13679        18.52563         0.25754
H         33.98558        46.68038         0.83301
H         32.90847        48.77832         0.35054
H         34.84567        21.57859        -0.22289
H         35.83448        23.05960         2.79517
H         36.34463        42.24582         0.84091
H         35.17323        44.24848         0.97441
H         37.05193        24.97988         2.58701
H         38.03401        27.09856         3.01434
H         37.98068        38.15505         2.59280
H         37.25242        40.16237         1.51425
H         39.02305        29.30142         3.59176
H         39.73579        31.30069         4.42016
H         39.72842        33.59458         4.92467
H         37.99053        35.89233         4.45867
