         324
 CSIRO Nanostructure Databank - Neutral Graphene Oxide Data Set
C          0.93808         4.37045        -1.60175
C         -0.14722         4.84195        -0.91539
C          0.94045         6.94358        -0.30505
C         -0.14672         6.11974        -0.24925
C          1.01026         8.38698         0.20202
C         -0.14405         8.79341         1.07892
C          1.19641        10.58236         2.11232
C         -0.05888         9.88530         1.86726
C          1.18699        11.96428         2.40426
C         -0.00112        12.71448         2.20613
C          1.12907        14.90233         2.15549
C         -0.02909        14.11096         2.10832
C          1.16992        16.26295         1.68229
C         -0.01040        17.01931         1.57048
C          1.17409        18.85896         0.49918
C         -0.00289        18.28612         0.98605
C          1.06619        20.08330        -0.38038
C          0.09369        21.16161         0.03806
C          1.24647        22.82137        -1.35647
C          0.15725        22.41329        -0.49755
C          1.37075        24.19349        -1.83414
C          0.17150        24.90216        -2.11315
C          1.35981        26.98582        -2.53569
C          0.16392        26.23151        -2.50366
C          1.37105        28.37177        -2.90312
C          3.34181         4.62168        -2.17860
C          2.16521         5.12160        -1.64660
C          3.46620         7.03785        -0.58543
C          2.13029         6.46360        -1.02985
C          3.48249         7.99863         0.54735
C          2.34186         8.68432         0.90129
C          3.59986        10.03240         2.50713
C          2.39677         9.77126         1.88239
C          3.68929        12.17361         2.94508
C          2.32343        12.79379         3.00142
C          3.67886        14.81140         2.00668
C          2.38865        14.22933         2.50475
C          3.63919        16.13709         1.34646
C          2.41481        16.85196         1.25018
C          3.65901        18.74079         0.26191
C          2.40944        18.15273         0.64173
C          3.67741        20.02603        -0.49404
C          2.39162        20.68277        -0.76956
C          4.11888        22.96988        -1.47190
C          2.28659        21.86253        -1.50460
C          3.88084        24.39064        -1.51904
C          2.60997        24.93509        -1.90811
C          3.77535        27.13414        -2.09553
C          2.58167        26.34583        -2.17052
C          3.77771        28.51163        -2.50387
C          2.53159        29.10077        -2.91236
C          5.82714         4.74992        -2.49971
C          4.62176         5.25143        -1.95097
C          5.91402         6.81554        -0.59157
C          4.67155         6.30640        -0.98658
C          6.03365         7.71698         0.57845
C          4.78317         8.23564         1.22461
C          6.16554        10.26229         2.30508
C          4.88891         9.42234         2.16117
C          6.11927        11.79821         2.51923
C          4.84256        12.60201         2.38138
C          6.15652        14.70826         1.73498
C          4.86066        13.92666         1.63288
C          6.14025        16.08882         1.40618
C          4.87301        16.76129         1.08343
C          6.09483        18.90084         0.80663
C          4.86366        18.10083         0.60863
C          6.10022        20.35735         0.44884
C          4.99033        20.88657        -0.41794
C          6.08793        23.18909        -0.05950
C          5.00595        22.34684        -0.62854
C          6.11847        24.63699        -0.47195
C          4.96174        25.21413        -1.17911
C          6.20565        27.30473        -1.61593
C          4.97250        26.57657        -1.57453
C          6.21608        28.63821        -2.13766
C          4.97879        29.23618        -2.50974
C          8.30036         4.79867        -2.78784
C          7.08792         5.38122        -2.27889
C          8.12161         7.43353        -1.24976
C          7.04692         6.50136        -1.36335
C          8.37250         8.23661        -0.17372
C          7.34821         8.40532         0.87499
C          8.60497        10.58642         1.38373
C          7.42576         9.69772         1.66420
C          8.64757        11.90209         1.88536
C          7.39989        12.57945         2.34468
C          8.58128        14.77775         2.04239
C          7.36533        14.04995         2.02645
C          8.56709        16.16414         1.80768
C          7.36195        16.82016         1.43630
C          8.54969        18.97811         1.08992
C          7.37885        18.23741         1.10649
C          8.56429        20.36882         0.66775
C          7.41137        21.03769         0.35130
C          8.68047        23.21763        -0.07565
C          7.40937        22.51371         0.22130
C          8.70173        24.55732        -0.53693
C          7.44878        25.34957        -0.62719
C          8.64814        27.28193        -1.62023
C          7.43837        26.65613        -1.32614
C          8.67612        28.64698        -2.05647
C          7.45819        29.31055        -2.27770
C         10.79711         4.39184        -2.58225
C          9.67053         5.21412        -2.56218
C         10.99789         6.99832        -1.41415
C          9.92141         6.57851        -2.13944
C         10.96612         8.17985        -0.51362
C          9.72946         8.72994         0.13932
C         11.00201        10.73247         0.84286
C          9.77739        10.04519         0.80275
C         11.02589        12.04873         1.35856
C          9.85304        12.64401         1.83796
C         11.14381        14.81884         2.08618
C          9.86938        14.04848         2.41621
C         11.13244        16.27901         2.26930
C          9.78544        16.97354         2.09597
C         11.10838        19.11646         1.50855
C          9.78766        18.41994         1.69922
C         11.13875        20.32009         0.61926
C          9.85368        21.02147         0.30882
C         11.10442        23.09403        -0.35313
C          9.87941        22.47209        -0.03370
C         11.12752        24.41977        -0.85065
C          9.91324        25.13362        -0.98605
C         11.18355        27.21724        -1.88379
C          9.88866        26.48216        -1.61652
C         11.15317        28.69660        -1.95801
C          9.94211        29.33694        -2.14871
C         13.39237         4.33377        -2.58015
C         12.11774         4.78402        -1.90417
C         13.40857         6.89944        -1.29977
C         12.21612         6.23744        -1.49175
C         13.42181         8.40934        -1.09081
C         12.20672         8.95200        -0.39025
C         13.52176        10.63835         0.81646
C         12.22634        10.10954         0.32671
C         13.52346        11.97920         1.47014
C         12.29780        12.82830         1.15343
C         13.60498        14.86708         1.83510
C         12.32675        14.17947         1.80420
C         13.60572        16.27811         1.99237
C         12.39981        17.01931         2.03295
C         13.59301        19.10346         1.42706
C         12.40154        18.40548         1.70417
C         13.60356        20.42749         0.83858
C         12.41053        21.04774         0.48378
C         13.67849        23.12715        -0.20658
C         12.37942        22.33917        -0.21993
C         13.63194        24.58346        -0.40578
C         12.43770        25.08704        -1.11674
C         13.62150        27.36764        -1.12510
C         12.47378        26.53810        -1.54125
C         13.58700        28.78295        -1.46732
C         12.40291        29.39451        -1.86590
C         15.83101         4.44542        -2.92572
C         14.57595         5.00779        -2.44218
C         15.82062         7.03840        -1.71453
C         14.64387         6.31306        -1.77010
C         15.90201         8.29199        -0.97102
C         14.72078         8.90366        -0.50057
C         16.03121        10.62655         0.65532
C         14.78607        10.03777         0.33512
C         16.09917        11.92044         1.38684
C         14.82352        12.67736         1.71765
C         16.10141        14.81198         1.77576
C         14.84271        14.15646         1.76372
C         16.14936        16.24143         1.88497
C         14.89068        16.96852         2.08420
C         16.14278        19.10259         1.33299
C         14.88089        18.50582         1.78732
C         16.11524        20.48945         0.93919
C         14.86775        21.13351         0.70623
C         16.04172        23.28064         0.50256
C         14.87578        22.50613         0.37587
C         15.93055        24.75615         0.46857
C         14.72201        25.38317        -0.14256
C         15.90480        27.63594        -0.24010
C         14.70688        26.79799        -0.47796
C         15.97591        28.96063        -0.91073
C         14.82207        29.52309        -1.40799
C         18.25811         4.56423        -3.33567
C         16.99756         5.15520        -2.91418
C         18.31746         7.20313        -2.17175
C         16.95996         6.64356        -2.62002
C         18.37065         8.12166        -0.98685
C         17.14769         8.86770        -0.63325
C         18.53158        10.62838         0.43546
C         17.23422        10.03721         0.16600
C         18.61861        11.89441         1.27409
C         17.34313        12.70791         1.30259
C         18.63316        14.74179         1.82707
C         17.33576        14.05083         1.60408
C         18.64034        16.28064         1.89444
C         17.34477        16.98061         1.76512
C         18.60712        19.02314         1.04812
C         17.33330        18.37329         1.44203
C         18.59805        20.53448         0.79384
C         17.31297        21.24278         0.84835
C         18.53239        23.41955         0.76714
C         17.28849        22.65426         0.74409
C         18.50573        24.83045         0.63528
C         17.20378        25.54493         0.60777
C         18.47018        27.57821        -0.33196
C         17.18221        27.00027         0.22533
C         18.40007        29.08623        -0.43572
C         17.21853        29.68373        -0.82116
C         19.45563         5.18750        -3.21538
C         20.85488         6.92411        -1.92216
C         19.58126         6.51513        -2.57105
C         20.92801         7.99960        -1.11519
C         19.70926         8.63781        -0.53964
C         20.96104        10.70784         0.17239
C         19.72275         9.99974         0.06226
C         21.01887        12.02715         0.58251
C         19.86526        12.71618         1.02991
C         21.08391        14.83145         1.48319
C         19.89079        14.06986         1.43240
C         21.09306        16.21794         1.60997
C         19.91097        16.98355         1.64068
C         21.05555        19.17462         1.30127
C         19.90001        18.38891         1.37559
C         21.02751        20.57342         1.12608
C         19.84668        21.29466         0.95690
C         20.96643        23.52275         0.94092
C         19.78576        22.74259         0.90245
C         20.93146        24.89830         0.79133
C         19.70855        25.58591         0.61296
C         20.75471        27.85392         0.63117
C         19.68842        27.02775         0.37648
C         20.71864        29.25076         0.31085
C         19.59676        29.84389        -0.20788
O         13.37045        10.81197         2.29316
O          6.89936        12.22839         3.67645
O         10.49226        26.53323        -2.96530
O          6.98281         7.19192         1.57709
O          7.16824         9.59197         3.09701
O         14.94020        17.97050         3.13819
O         18.60799        19.55814        -0.31629
O         18.99215         7.59737         0.23905
O         13.22739        22.39881        -1.40997
O          6.65382        25.46422         0.60333
O          3.69371        10.91916         3.57837
O         10.51066        20.15363        -0.70803
O          6.53055        23.02310         1.30879
O          2.78317         7.53076        -1.81014
O         16.35242        25.30228         1.77349
O         10.52260         7.69429         0.84097
O          8.93207         7.53411        -2.38224
O         18.70068        15.43728         3.09888
O          5.75275        19.97231         1.80813
O         16.41702        27.79434         1.15213
O         10.32934        19.31991         2.73079
O         12.77708        25.46862        -2.49199
O          4.69342        20.04458        -1.56115
O         10.32910        16.72935         3.42837
O          4.86111         8.04376         2.67067
O         12.41091        13.13448        -0.23038
O          3.35324        22.20508        -2.35204
O          3.31298        14.94959         3.41329
O         15.57609        11.99678         2.76064
O         19.05930         7.68732        -3.34353
O         16.62685         7.28492        -3.89058
H         17.49003         7.50100        -4.32096
O         18.52761        27.05542        -1.70115
H         19.35265        27.38696        -2.11430
O          9.86598        13.92072         3.86328
H          9.91308        14.83293         4.23222
O         13.37464         8.97856        -2.44631
H         14.14199         8.61918        -2.94356
O         12.06041         4.00317        -0.65172
H         11.43069         4.45489        -0.04925
O          0.92574         9.24701        -0.97073
H          1.60214         8.91195        -1.61133
O         18.75522        11.41340         2.66033
H         19.50296        10.77885         2.68015
O          4.65805        13.62604         0.21281
H          5.53228        13.49410        -0.20965
O          0.51416        19.54610        -1.65410
H          1.22485        19.02591        -2.08691
O          1.97360        12.87418         4.41149
H          2.56310        13.55206         4.81177
H          0.89973         3.38912        -2.09623
H         -1.06315         4.23690        -0.86557
H         -1.06272         6.42105         0.27786
H         -1.11457         8.29250         0.95505
H         -0.95845        10.23035         2.39925
H         -0.93467        12.18433         1.97001
H         -0.98639        14.57937         1.83931
H         -0.96078        16.60731         1.93549
H         -0.95304        18.82660         0.87612
H         -0.72625        20.90816         0.72541
H         -0.59382        23.16234        -0.20543
H         -0.78228        24.35775        -2.06747
H         -0.78610        26.71798        -2.76789
H          0.42130        28.84332        -3.19528
H          3.32291         3.65205        -2.69922
H          2.52060        30.15726        -3.21730
H          5.77846         3.87202        -3.16203
H          4.97467        30.28010        -2.85802
H          8.17267         3.81973        -3.28057
H          7.46714        30.35580        -2.62073
H         10.67578         3.31700        -2.79404
H          9.92666        30.42885        -2.28572
H         13.38645         3.35277        -3.08075
H         12.40878        30.47535        -2.07300
H         15.83185         3.39592        -3.26166
H         14.83706        30.54974        -1.80380
H         18.22158         3.54534        -3.75250
H         17.20546        30.76479        -1.03190
H         20.37751         4.67512        -3.52894
H         21.77276         6.39726        -2.22494
H         21.91102         8.31641        -0.73604
H         21.88880        10.21797        -0.15106
H         21.98444        12.54898         0.53163
H         22.04930        14.32606         1.34427
H         22.06294        16.73069         1.54824
H         22.03491        18.70851         1.47688
H         21.98824        21.10326         1.18391
H         21.94197        23.03332         1.06065
H         21.87657        25.45841         0.79124
H         21.66078        27.46042         1.11370
H         21.61118        29.85673         0.51925
H         19.57956        30.92701        -0.39876
