         280
 CSIRO Nanostructure Databank - Neutral Graphene Oxide Data Set
C        -11.18978         0.77038        -0.07102
C        -10.07535         1.60390        -0.70127
C         -8.72842         0.86827        -0.53974
C         -7.46248         1.60948        -0.24939
C         -6.23547         0.85619         0.25764
C         -4.95038         1.64974        -0.08227
C         -3.64031         0.89190        -0.05291
C         -2.34817         1.67433         0.09720
C         -1.21556         0.94146         0.80484
C          0.05744         1.69424         0.56402
C          1.36183         0.94085         0.68029
C          2.52939         1.54464        -0.05774
C          3.81700         0.75270        -0.09004
C          5.10837         1.47042        -0.24606
C          6.35168         0.84542        -0.18709
C          7.67355         1.61848        -0.18494
C          8.97983         0.73649        -0.07856
C         10.50402         1.19845         0.08845
C         11.61715         0.30216        -0.45533
C        -10.04035         3.06335        -0.16201
C         -8.72824         3.81223        -0.35203
C         -7.53653         3.06074         0.12775
C         -6.30656         3.80211         0.51421
C         -4.98001         3.11171         0.27593
C         -3.74229         3.77019         0.82665
C         -2.45092         3.04446         0.76672
C         -1.20404         3.88431         0.59346
C         -0.00056         3.15673         0.08004
C          1.28724         3.93839        -0.13673
C          2.50730         3.02377        -0.33498
C          3.83620         3.72051        -0.40173
C          5.05883         2.88797        -0.69830
C          6.30429         3.59671        -0.24718
C          7.62130         3.09532        -0.80075
C          9.72453         3.54133         0.31450
C         10.46899         2.63631        -0.41589
C         -8.58217         5.10042        -0.77095
C         -7.30574         5.83448        -0.67734
C         -6.37101         5.34148         0.42140
C         -4.96971         5.99640         0.53880
C         -3.72492         5.26873         0.95189
C         -2.40149         6.03502         1.14628
C         -1.11848         5.25036         1.21244
C          0.23741         5.91351         1.27341
C          1.48839         5.02612         0.95948
C          2.65251         5.82873         0.44660
C          3.94264         5.08431         0.20181
C          5.15281         5.61632         0.97253
C          6.42539         4.88778         0.48384
C          7.83471         5.47390         0.19442
C          8.64029         4.26947        -0.43800
C         -7.07913         7.07013        -1.21747
C         -5.67227         7.65567        -1.24943
C         -4.87089         7.43986         0.06692
C         -3.39967         7.98927        -0.12937
C         -2.34130         7.51103         0.86383
C         -1.00152         8.23079         0.83833
C          0.31194         7.44028         1.16474
C          1.56872         8.11013         0.80283
C          2.75676         7.29175         0.51925
C          4.10445         7.89518         0.51338
C          5.17708         7.12451         0.84050
C          6.93166         7.75975        -0.34207
C          7.66798         6.68412        -0.74893
C         -5.55359         9.12562        -1.61082
C         -4.54416         9.92197        -1.21386
C         -3.42975         9.53039        -0.24524
C         -2.04093        10.09007        -0.67137
C         -0.84934         9.49108         0.08832
C          0.38800        10.08632        -0.01641
C          1.63100         9.41827         0.32939
C          2.92903         9.94084        -0.10839
C          4.13851         9.25554        -0.02053
C          5.32906         9.67801        -0.75529
C          6.47940         8.97357        -1.02051
C        -11.19647        -0.57473        -0.10264
C        -10.00332        -1.33341        -0.65418
C         -8.76406        -0.60142        -0.10011
C         -7.49390        -1.32715        -0.46386
C         -6.20669        -0.55922        -0.30652
C         -4.92348        -1.31471        -0.25801
C         -3.62556        -0.59610         0.02989
C         -2.49610        -1.33406         0.68642
C         -1.32422        -0.51258         1.29575
C          0.04717        -1.28474         1.33776
C          1.34670        -0.49893         1.14691
C          2.62531        -1.31101         1.05915
C          3.82768        -0.66072         0.39975
C          5.19393        -1.24424         0.74709
C          6.36712        -0.57251         0.06987
C          7.50995        -1.31529        -0.27083
C          8.66981        -0.58925        -0.58412
C         10.45393        -1.84743        -0.83898
C         11.65627        -1.04309        -0.61622
C         -9.93631        -2.83430        -0.36079
C         -8.77621        -3.53600        -0.29510
C         -7.47279        -2.81753        -0.45301
C         -6.17769        -3.49298         0.03189
C         -4.88077        -2.81043        -0.40464
C         -3.56526        -3.52906        -0.31050
C         -2.43444        -2.80873         0.42241
C         -1.11930        -3.51910         0.60278
C          0.07848        -2.79641         1.18748
C          1.36022        -3.59209         1.15560
C          2.63864        -2.81192         1.21821
C          3.91590        -3.54141         0.87230
C          5.16210        -2.78207         0.52550
C          6.12723        -3.44430        -0.42296
C          7.45405        -2.76270        -0.63860
C          8.70133        -3.62586        -0.82272
C         10.06445        -3.10405        -0.49273
C         -8.72795        -5.06338        -0.41136
C         -7.45693        -5.71468         0.20822
C         -6.18669        -4.98347        -0.24751
C         -4.89168        -5.71272        -0.41509
C         -3.48299        -5.07135        -0.38894
C         -2.57687        -5.65831         0.72020
C         -1.16573        -5.01279         0.66703
C          0.01829        -5.70311         1.29304
C          1.33710        -4.96110         1.24559
C          2.60949        -5.76371         1.20993
C          3.83612        -5.04116         0.71396
C          4.68691        -5.69836        -0.37779
C          5.97570        -4.91109        -0.74590
C          7.24125        -5.67214        -0.98669
C          8.46628        -5.09607        -0.87215
C         -7.37800        -7.20494        -0.04273
C         -6.21823        -7.89571        -0.22993
C         -4.90669        -7.21107        -0.35905
C         -3.66188        -7.94813         0.02087
C         -2.53878        -7.20614         0.70327
C         -1.32376        -7.98910         1.12727
C         -0.04527        -7.20157         1.44919
C          1.27732        -7.93148         1.59068
C          2.54144        -7.28334         1.06417
C          3.67940        -7.98593         0.34826
C          4.90683        -7.16399        -0.05617
C          6.08917        -7.88783        -0.59273
C          7.12848        -7.13136        -1.39864
C         -6.17769        -9.35317        -0.19862
C         -5.03543       -10.04814         0.04637
C         -3.74606        -9.41063         0.27523
C         -2.61585       -10.11203         0.53229
C         -1.25406        -9.52329         0.84512
C         -0.26980        -9.83058        -0.30449
C          1.04303        -9.91523        -0.19585
C          2.33781       -10.17374        -0.12141
C          3.45743        -9.22436        -0.53563
C          4.76877        -9.97897        -0.69814
C          5.95704        -9.36082        -0.77055
O          3.82214        -5.68612        -1.53878
H          4.13351        -4.97686        -2.14853
O         -5.54412         8.22117         1.07369
H         -6.16716         7.60162         1.54275
O          8.01252        -3.00637        -1.95778
O         -1.83353         9.89243        -2.07459
H         -1.87166         8.92002        -2.23215
O          6.04933        -7.43800         0.80320
O         -3.96820        -7.71363        -1.38260
O          2.86042        -1.93052         2.35856
O          3.65219        -0.41842        -1.01705
O          5.42847        -0.96935         2.13781
H          5.05184        -1.72278         2.65920
O         -8.77610        -5.39511        -1.80014
H         -7.94853        -5.08535        -2.22737
O         -0.40270         5.38117         2.47315
O         -2.38933        -7.70238         2.07483
O         -8.81858        -0.62287         1.34358
H         -9.60322        -0.10963         1.63467
O         -3.30113         0.04314        -1.22273
O         -3.17748         3.08459         2.00476
O         -7.47224        -2.07928        -1.71883
O          9.51099        -1.06630        -1.56827
O          4.03639         4.91106        -1.23785
O         -3.17110        -5.26958         1.96416
H         -2.77115        -5.83069         2.67061
O          6.50903         3.62072         1.21300
O         -2.62879         7.03835         2.18171
O         -3.69606        10.12034         1.03352
H         -4.47861         9.65344         1.41862
O         -7.16891         3.24604         1.55309
O          3.73949        -5.50780         2.09152
O          5.58886        -3.87265        -1.71549
O         -0.24181        -6.30487         2.59492
O         -5.71166        -5.29518        -1.57967
O         -4.64233         5.78380         1.94748
O         -0.40267         8.20533         2.16347
O         -7.12636         5.90619         1.47114
O          8.26375         1.25490         1.07709
O          5.09685         2.88031        -2.22855
O         -2.96558        -2.29251         1.68413
O         -4.09371        -3.09640        -1.59854
O          1.37696        -8.89936         2.32467
O          2.21220         2.05363        -1.40124
O         -0.61817         1.71998         1.86409
O         -0.02920        -2.17188         2.49882
O         -4.93346         2.66704        -1.12885
O         -5.44636        -0.71662        -1.50611
O         -0.77350        -4.33103        -0.55819
O        -10.01587        -1.17426        -2.09480
H         -9.16334        -1.55051        -2.42835
O          6.45417         7.69625         1.00053
O         -2.79738         7.46738        -1.34773
H         -3.48488         7.36967        -2.05438
O         10.76453         1.10797         1.48540
H         10.27470         1.83285         1.93916
O         -1.87648         1.80260        -1.26415
H         -2.63329         2.05139        -1.83792
O         -7.80347         1.22377        -1.60789
O        -10.24140         2.97152         1.25847
H         -9.84115         3.75680         1.68866
O          5.03835        -3.38822         1.83215
O          3.61868        -8.02460         1.76636
O          1.62625         0.60464         2.06814
O          2.37424         6.60914        -0.75526
O          8.45710         5.88796         1.41769
H          7.92939         6.64863         1.76161
O         -0.94801         3.81003        -0.84038
O        -10.36134         1.68515        -2.10757
H        -10.29745         0.76616        -2.46594
O          1.17983         4.62820        -1.38431
H          1.02383         3.96656        -2.08998
O         -5.07273         6.87487        -2.34682
H         -5.59333         7.05662        -3.15785
O         -2.85769        -5.39530        -1.63117
H         -3.40688        -4.99327        -2.34101
O          9.75596         3.60946         1.65457
H          9.18374         4.35965         1.95668
O          6.73831        -7.18255        -2.77457
H          7.28773        -6.55120        -3.28278
O         -7.59174        -5.53924         1.65107
H         -6.99960        -6.17412         2.10666
O         -6.15019        -3.28835         1.46489
H         -6.85681        -3.84812         1.87181
O          3.11184        -8.65471        -1.82084
H          3.08447        -9.37325        -2.48585
O          4.96468         5.31253         2.36569
H          5.31985         4.40802         2.52802
O          7.69497         2.93858        -2.20936
H          6.80013         2.70637        -2.56776
O         -6.26022         0.72989         1.68677
H         -6.55551         1.59613         2.06935
O         -0.88053       -10.21670         2.03170
H         -0.02845        -9.86290         2.38702
O          4.64291         1.60264        -2.71336
H          3.65309         1.65466        -2.60033
O         -1.71708        -0.31952         2.65990
H         -1.73489        -1.20021         3.09720
O          1.89694         4.35307         2.15403
H          1.13877         4.38493         2.79018
H         12.63636        -1.53624        -0.72302
H         12.59579         0.80677        -0.39325
H         10.25629         2.68079        -1.49921
H          9.06046         4.60215        -1.41168
H          8.06747         6.63113        -1.77179
H          7.15249         9.38661        -1.78881
H          5.20773        10.62221        -1.31295
H          2.92335        10.92584        -0.60278
H          0.46544        11.04387        -0.55489
H         -2.05020        11.19567        -0.49670
H         -4.54348        10.97085        -1.55267
H         -6.32592         9.53811        -2.28250
H         -7.82381         7.51323        -1.90060
H         -9.45187         5.64266        -1.17826
H        -10.88492         3.63988        -0.63380
H        -12.06393         1.30878         0.32647
H        -12.05760        -1.13571         0.29420
H        -10.89176        -3.38460        -0.34672
H         -9.63184        -5.51176         0.07089
H         -8.31466        -7.77034         0.08495
H         -7.12944        -9.89276        -0.31232
H         -5.07252       -11.14586         0.10934
H         -2.67682       -11.20511         0.64577
H         -0.72267       -10.05956        -1.28681
H          2.63918       -11.19168         0.18777
H          4.71685       -11.07239        -0.82193
H          6.87545        -9.94196        -0.94807
H          8.13600        -7.62748        -1.27181
H          9.35729        -5.73652        -0.98440
H         10.74169        -3.76186         0.06921
