         273
 CSIRO Nanostructure Databank - Neutral Graphene Oxide Data Set
C         30.54899        31.50467        -0.75833
C         30.61919        32.76493        -0.57198
C         30.47645        35.87141        -1.02953
C         30.48130        37.11105        -1.23776
C         30.26863        40.34554        -1.22445
C         30.31518        41.57984        -0.93221
C         32.75950        28.97426         0.03601
C         31.66268        29.47405        -0.44216
C         33.03020        31.79451         0.65917
C         30.52968        30.15727        -0.61902
C         32.91495        33.14110         0.15825
C         31.70971        33.66294        -0.36838
C         32.77635        35.89568        -0.65796
C         31.65186        35.08158        -0.70005
C         32.68306        37.39417        -0.45331
C         31.46551        38.10864        -1.09975
C         32.65054        40.30071        -0.95717
C         31.42792        39.50813        -1.10301
C         32.62393        41.68182        -0.81880
C         31.37758        42.42384        -0.59642
C         32.63362        43.71777         0.87222
C         31.48988        43.56201         0.28988
C         35.53930        27.49521         0.47608
C         35.33186        28.82405        -0.13944
C         34.03281        29.56721         0.15430
C         35.31939        31.63230        -0.36371
C         34.14412        30.97352         0.35450
C         35.47619        33.11765         0.01538
C         34.17919        33.91409         0.04490
C         35.25408        35.90549        -1.23876
C         34.12035        35.33502        -0.38926
C         35.26674        37.49067        -1.30499
C         34.01280        38.13777        -0.66965
C         35.25496        40.35598        -1.15632
C         33.96819        39.61927        -0.84871
C         35.23962        41.86139        -0.97403
C         33.86556        42.51754        -1.09198
C         35.11115        44.40578         0.81586
C         33.97088        43.47554         1.09974
C         35.42735        45.17532         2.11834
C         37.71837        27.53202         1.49533
C         36.46645        26.90230         1.02964
C         37.82244        28.93000         0.92102
C         36.51347        29.64361         0.61721
C         37.85023        31.64673        -0.12883
C         36.65941        30.97830        -0.05412
C         37.91311        33.09638        -0.33059
C         36.62410        33.73212        -0.83488
C         37.79429        36.02769        -0.44597
C         36.60538        35.25779        -0.88797
C         37.70220        37.53049        -0.17579
C         36.49418        38.22531        -0.78446
C         37.71932        40.37690        -0.38075
C         36.48988        39.58666        -0.81067
C         37.74125        41.84735        -0.87015
C         36.45437        42.56209        -0.43487
C         37.74153        44.29264         0.76095
C         36.46128        43.67641         0.38368
C         37.85072        45.31190         1.71728
C         36.57601        45.59472         2.30254
C         40.32950        24.75332         1.70219
C         39.22236        25.34201         1.77984
C         40.33324        27.52700         1.67538
C         38.99185        26.78237         1.80671
C         40.28379        28.98537         1.29960
C         39.00730        29.59760         0.83992
C         40.34277        31.73592         0.37453
C         39.14446        30.87676         0.00497
C         40.31078        33.15122         0.26828
C         39.04013        33.81845        -0.03614
C         40.31533        36.00801        -0.21321
C         38.97606        35.31826         0.21839
C         40.24842        37.55562         0.01302
C         39.00685        38.12479        -0.77770
C         40.28049        40.37624        -0.88527
C         38.98342        39.64857        -0.84981
C         40.23631        41.83337        -0.55799
C         39.04700        42.48832        -0.41616
C         40.26561        44.28336         0.81381
C         39.00170        43.95653        -0.03482
C         40.27504        45.71795         1.29215
C         39.04553        46.07010         1.97837
C         40.21653        47.45918         3.74532
C         39.29233        47.01880         2.95582
C         42.88621        24.83642         2.09645
C         41.63289        25.26924         1.68440
C         43.00702        27.52591         1.09153
C         41.57282        26.72739         1.10916
C         42.82674        28.98030         1.56551
C         41.58849        29.56991         0.73536
C         42.76292        31.80892         0.53720
C         41.56529        31.08700         0.64956
C         42.76201        33.21990         0.36706
C         41.51747        33.89294         0.35913
C         42.80249        36.08845         0.15312
C         41.51146        35.39288         0.55365
C         42.79856        37.60624         0.16512
C         41.53609        38.26469        -0.38061
C         42.81984        40.33746        -0.81046
C         41.54138        39.59503        -0.67360
C         42.82341        41.83535        -0.77597
C         41.53268        42.57431        -0.54763
C         42.81812        44.52621         0.59167
C         41.55005        43.91757         0.09914
C         42.76624        45.80043         1.09056
C         41.46240        46.43471         1.31298
C         42.80434        47.42885         3.51770
C         41.45426        47.72962         3.16226
C         43.93195        25.55949         2.15920
C         45.39264        27.60141         1.79877
C         44.20992        26.89965         1.87207
C         45.48761        29.12593         1.54126
C         44.10822        29.80924         1.41741
C         45.28673        31.79415         0.28637
C         44.06208        31.16263         0.80605
C         45.23803        33.20967         0.05205
C         44.00643        33.93728         0.18267
C         45.25855        36.06873        -0.23552
C         44.00069        35.37539         0.02486
C         45.28848        37.48083        -0.36834
C         44.06847        38.24104        -0.35127
C         45.32428        40.34820        -0.56952
C         44.08537        39.60504        -0.58085
C         45.34865        41.73519        -0.39595
C         44.12016        42.62329        -0.56321
C         45.34008        44.41725         0.64724
C         44.04057        43.63106         0.61697
C         45.30053        45.84650         1.14917
C         44.02576        46.57622         1.50838
C         43.79190        46.90285         2.98435
C         47.63035        27.46370         0.92444
C         46.73051        27.12667         1.72483
C         47.72313        28.77051         0.25311
C         46.34796        29.50026         0.29665
C         47.69765        31.66923        -0.11344
C         46.48329        31.02931         0.17867
C         47.64703        33.06944        -0.68669
C         46.42970        33.88686        -0.31925
C         47.68324        35.95321        -0.80981
C         46.46752        35.30045        -0.44526
C         47.81772        37.42833        -0.49039
C         46.51927        38.18977        -0.55586
C         47.80487        40.32296        -0.61492
C         46.55335        39.58659        -0.56687
C         47.83653        41.65764        -0.29034
C         46.59367        42.37307        -0.01153
C         47.89808        44.06650         1.33689
C         46.59730        43.61164         0.62325
C         47.66335        45.52063         1.61746
C         46.61996        46.16754         1.72117
C         50.33697        28.94419         0.32322
C         49.00591        29.51657         0.09197
C         50.08780        31.82423         0.34677
C         48.98090        31.02359         0.08840
C         50.16394        33.30435         0.05404
C         48.91602        33.86014        -0.56273
C         50.15287        35.84121        -1.42458
C         48.89448        35.19666        -0.93621
C         50.18873        37.34704        -1.50849
C         48.93272        38.13602        -1.24298
C         50.30833        40.38903        -1.39217
C         48.98802        39.63118        -1.19331
C         50.38600        41.70381        -0.60055
C         49.10933        42.42382        -0.32984
C         50.47349        44.04023         0.91229
C         49.10758        43.74714         0.49198
C         51.49437        29.30188         0.05918
C         52.64757        31.35456        -0.93774
C         52.09233        30.59690         0.06676
C         52.26445        32.62167        -0.95851
C         51.39512        33.62361        -0.87816
C         52.56219        35.89808        -1.08233
C         51.46046        34.95434        -1.58142
C         52.52892        37.12613        -1.24828
C         51.48353        38.09910        -1.36356
C         52.65664        40.25705        -0.89242
C         51.53142        39.45246        -1.22661
C         52.76910        41.42308        -0.47596
C         51.61734        42.25593        -0.21784
C         51.50406        43.52022         0.44534
O         48.54111        38.90347        -2.40627
O         48.31449        28.89505        -1.04770
O         37.62841        35.69601        -1.85517
O         33.75831        43.54895        -1.73528
O         40.14066        37.82929         1.40266
O         40.37157        28.54002         2.69044
O         41.43754        47.79613         1.71235
O         49.97731        36.54012        -2.71239
O         51.23907        31.38226         0.99722
O         34.24133        38.99825         0.48536
O         38.13976        27.31311         2.84296
O         42.85925        41.14497        -2.06318
O         48.93917        43.76326        -0.92164
O         50.40365        40.77010        -2.83729
O         39.53682        40.08977        -2.12836
O         41.45883        43.82153        -1.35587
O         41.66197        29.13373        -0.62354
O         44.09024        30.94989         2.33755
O         35.36354        41.20337        -2.30878
O         34.34049        35.03934         1.02432
O         43.97533        42.87798         1.85699
H         43.03929        42.76917         2.12921
O         39.43573        30.40785        -1.34218
H         40.31206        29.91003        -1.29685
O         35.55745        28.76879        -1.52719
H         35.28628        29.63945        -1.91976
O         35.17245        37.86260        -2.70878
H         36.07002        38.07900        -3.04186
O         36.52890        33.33811        -2.22536
H         37.09779        33.96168        -2.73175
O         37.77638        41.87220        -2.30486
H         37.76684        42.80786        -2.59550
O         49.18620        41.46042        -3.18174
H         48.63093        40.74123        -3.57511
O         32.34610        37.48196         0.95561
H         32.94679        38.15496         1.36092
O         45.37354        45.57088        -0.26375
O         42.78005        37.97381         1.59182
H         41.81077        38.08253         1.82897
O         44.32965        43.40854        -1.74789
H         44.07259        42.85710        -2.51909
O         37.73339        40.45537         1.05572
H         37.64497        39.52382         1.40334
O         34.97195        31.41297        -1.75401
H         35.60006        31.92188        -2.32691
O         46.18726        29.65004         2.67691
H         45.63348        30.38172         3.04906
O         41.19834        26.54632        -0.25351
H         41.26315        27.45707        -0.68520
O         38.74970        35.42745         1.63700
H         39.59431        35.19033         2.09799
O         34.30158        42.34569         1.78451
H         33.49916        41.85452         2.05516
O         39.05856        37.67850        -2.14243
H         39.47278        38.41532        -2.66292
O         40.58655        35.68455        -1.57884
H         39.89395        36.11879        -2.13981
O         43.50861        27.48922        -0.22265
H         43.00092        28.16870        -0.76217
O         45.62466        29.07717        -0.86468
H         46.25881        29.00292        -1.61174
O         32.03988        31.34273         1.43932
H         32.21992        30.42535         1.73202
O         41.33963        35.59425         1.98314
H         40.97566        36.52859         2.07985
O         37.59656        37.77988         1.23226
H         38.50974        37.60922         1.63088
O         48.26943        37.46855         0.90895
H         47.58726        37.03310         1.46371
O         40.25609        43.42188         1.98367
H         39.39187        43.51975         2.44014
O         34.90720        35.41436        -2.54915
H         35.01370        36.16514        -3.18442
O         50.39564        34.01168         1.28747
H         51.06407        33.50326         1.79770
O         48.03480        43.33147         2.54987
H         47.31409        43.58361         3.16348
O         35.94363        29.92442         1.92636
H         36.43499        30.67370         2.32648
O         51.67103        34.68999        -2.93956
H         51.38098        35.48132        -3.45202
O         35.94882        33.07878         1.38448
H         35.72070        33.94298         1.80151
O         38.96320        44.76184        -1.22756
H         39.80268        44.58682        -1.72163
O         42.64309        28.91860         2.98311
H         42.72131        29.83159         3.33913
O         34.73045        45.31738        -0.16633
H         35.48222        45.90275        -0.38825
O         47.50539        32.82050        -2.15118
H         46.60182        32.47081        -2.30797
O         44.01824        47.81015         0.81655
H         44.92436        48.18207         0.80904
