         598
 CSIRO Nanostructure Databank - Neutral Graphene Oxide Data Set
C         26.68663        69.54644        -6.38821
C         26.68330        70.95916        -6.47068
C         25.88903        71.64978        -7.42718
C         26.71056        73.78875        -6.62804
C         25.90769        73.04248        -7.49079
C         28.01963        65.31072        -4.23435
C         28.02870        66.72111        -4.30570
C         27.40562        67.43454        -5.32838
C         28.28588        69.62249        -4.53914
C         27.46492        68.86743        -5.42414
C         28.31041        71.04606        -4.60622
C         27.49904        71.71712        -5.57423
C         28.37263        73.87239        -4.78882
C         27.52455        73.14211        -5.65862
C         29.04265        61.09427        -1.78717
C         29.10741        62.50869        -1.93515
C         28.59285        63.20488        -3.05306
C         29.03611        65.38003        -1.98983
C         28.61737        64.62224        -3.14627
C         29.08441        66.85996        -1.96507
C         28.86957        67.46296        -3.32466
C         29.71910        69.70993        -2.41942
C         29.07403        68.92897        -3.50595
C         30.13440        71.11098        -2.82710
C         29.14361        71.80232        -3.74115
C         30.11447        73.97337        -3.02871
C         29.18627        73.21925        -3.84380
C         30.07119        56.93964         0.73628
C         30.26651        58.40448         0.44645
C         29.38528        59.08906        -0.37352
C         30.26829        61.28723         0.35743
C         29.51918        60.49109        -0.62381
C         30.43664        62.72953         0.19870
C         29.64267        63.28128        -0.84263
C         30.49904        65.72548         0.54522
C         29.29887        64.65195        -0.84586
C         30.74697        67.03228         0.10676
C         29.86941        67.69438        -0.91760
C         31.10850        69.86933        -0.38850
C         30.20554        69.10965        -1.29580
C         31.45274        71.27021        -0.74622
C         30.43346        71.97360        -1.60123
C         31.84350        74.04767        -1.27583
C         30.82510        73.37936        -2.00114
C         32.58492        52.67199         0.74567
C         32.60047        54.08791         0.83703
C         31.39461        54.83232         0.76704
C         32.58277        56.91741         1.21476
C         31.38279        56.21367         0.90594
C         32.59540        58.37077         1.34734
C         31.41744        59.06078         0.98049
C         32.58140        61.24261         1.48025
C         31.37454        60.50003         1.15290
C         32.53344        62.65758         1.51636
C         31.40949        63.42711         1.01225
C         32.53206        65.55414         1.83559
C         31.49996        64.87560         1.09654
C         32.62657        67.00816         1.72428
C         31.87228        67.65269         0.70997
C         33.33748        69.73019         0.89693
C         32.02358        69.11691         0.52817
C         33.52234        71.18895         0.61447
C         32.49304        71.92829        -0.16461
C         33.70020        74.02870         0.33145
C         32.67578        73.36450        -0.37394
C         35.02403        48.39790         0.18412
C         35.03428        49.78671         0.42089
C         33.80638        50.52871         0.64951
C         35.07839        52.68099         0.52599
C         33.77629        51.92083         0.69149
C         35.07460        54.09643         1.07154
C         33.82734        54.80945         1.04655
C         35.03995        56.95074         1.54719
C         33.79176        56.19883         1.28547
C         34.91510        58.27933         2.28919
C         33.74338        59.08814         1.77055
C         34.93969        61.24835         2.23298
C         33.76502        60.51784         1.82184
C         34.91008        62.65133         2.43814
C         33.63772        63.32941         2.14493
C         35.23887        65.53348         3.42537
C         33.40391        64.65773         2.54049
C         35.23429        66.90522         3.53503
C         33.53679        67.88551         2.48813
C         35.12276        69.86391         2.72969
C         34.02874        69.09410         2.04299
C         35.34101        71.29080         2.32369
C         34.48412        71.94956         1.43800
C         35.56602        74.10030         1.92650
C         34.57195        73.36477         1.22013
C         37.65733        44.14621        -0.24940
C         37.59534        45.58095        -0.28850
C         36.39387        46.23080        -0.02567
C         37.52162        48.47662        -0.38601
C         36.24239        47.67667        -0.19817
C         37.51392        49.99096        -0.17607
C         36.25967        50.49606         0.48010
C         37.51498        52.61209         1.11349
C         36.21457        51.85809         1.11367
C         37.50447        53.95000         1.41368
C         36.26697        54.71056         1.41488
C         37.48676        56.81600         2.37246
C         36.31786        56.17901         1.65411
C         37.46936        58.32498         2.56819
C         36.21680        59.04325         2.27951
C         37.51393        61.21120         2.57567
C         36.16449        60.47319         2.53386
C         37.43701        62.66776         2.27398
C         36.17383        63.37606         2.63059
C         37.56956        65.51215         2.85038
C         36.31948        64.76100         2.92850
C         37.57330        66.93359         3.11845
C         36.39997        67.67192         3.34868
C         37.58646        69.92608         3.81675
C         36.30855        69.15682         3.42825
C         37.63352        71.34444         3.30197
C         36.46640        72.01735         2.84467
C         37.59994        74.21068         3.38689
C         36.51567        73.44265         2.67403
C         40.11694        39.90443        -0.65799
C         40.09919        41.31330        -0.76535
C         38.89593        42.02960        -0.54770
C         40.01844        44.21299        -0.95782
C         38.81861        43.44035        -0.56434
C         40.05076        45.66045        -0.68552
C         38.82846        46.33858        -0.48811
C         40.00274        48.50039        -0.31937
C         38.81894        47.76389        -0.34191
C         40.00122        49.88452         0.13985
C         38.79364        50.50335         0.44162
C         40.06330        52.51950         1.33405
C         38.75298        51.80257         1.12220
C         40.03392        54.01695         1.36472
C         38.75881        54.62484         1.85261
C         40.08497        56.80257         2.44362
C         38.78338        56.04257         2.31189
C         40.03178        58.30869         2.66997
C         38.76023        59.07617         2.55184
C         40.05350        61.20744         2.31152
C         38.79191        60.45057         2.42263
C         40.04158        62.64315         2.28379
C         38.77730        63.41560         2.22383
C         40.05490        65.52866         2.62500
C         38.79062        64.84935         2.56832
C         40.09932        66.96443         2.84357
C         38.86254        67.63653         3.27745
C         40.11727        69.87484         3.24145
C         38.88304        69.12854         3.56645
C         40.11253        71.30459         3.27171
C         38.86821        72.03135         3.33793
C         40.10310        74.14545         3.26976
C         38.90825        73.46625         3.30838
C         42.60487        35.65192        -0.49920
C         42.59951        37.04053        -0.76135
C         41.36172        37.76850        -0.74058
C         42.52590        39.89088        -1.24185
C         41.30344        39.15799        -0.84613
C         42.55775        41.36096        -1.07901
C         41.35228        42.02515        -0.96582
C         42.59513        44.24296        -0.96605
C         41.33405        43.49207        -1.12525
C         42.54364        45.67266        -0.87956
C         41.28834        46.34615        -0.76864
C         42.57152        48.57268        -0.62898
C         41.24637        47.81717        -0.72372
C         42.53657        49.98850        -0.13016
C         41.26225        50.58751         0.36065
C         42.54251        52.58580         1.22779
C         41.29146        51.86262         0.87698
C         42.57376        54.05118         1.33478
C         41.30533        54.79806         1.41284
C         42.55499        56.85327         1.93065
C         41.34813        56.18170         1.94934
C         42.61116        58.28562         2.33795
C         41.33026        59.06998         2.57597
C         42.54350        61.23503         2.14504
C         41.29060        60.53041         2.31270
C         42.52137        62.68411         2.15918
C         41.25984        63.36812         2.28170
C         42.53560        65.50269         2.53180
C         41.24583        64.80009         2.43306
C         42.55933        67.01304         2.69453
C         41.26863        67.70889         2.79382
C         42.53176        69.84314         2.76304
C         41.29758        69.15357         2.92566
C         42.58468        71.27580         3.08328
C         41.32817        72.02319         3.18448
C         42.54376        74.17383         2.93544
C         41.35177        73.44864         3.17315
C         45.03452        32.86926         0.12156
C         43.83003        33.54112        -0.08010
C         45.05906        35.64437        -0.40076
C         43.81510        34.93868        -0.34087
C         45.07675        37.04038        -0.69774
C         43.84372        37.71845        -0.93380
C         45.10078        39.92284        -1.30350
C         43.82967        39.13222        -1.33809
C         45.03841        41.38584        -1.04736
C         43.82209        42.07632        -1.04529
C         45.04592        44.24393        -0.79680
C         43.80602        43.52610        -0.92693
C         45.00959        45.64091        -0.66052
C         43.79115        46.39918        -0.73935
C         45.03566        48.49317        -0.16285
C         43.81270        47.80218        -0.52275
C         45.05670        49.78128         0.30358
C         43.82782        50.58858         0.31692
C         45.07891        52.65322         0.93447
C         43.84720        51.86430         1.09080
C         45.02413        54.05373         0.99861
C         43.77240        54.74837         1.27043
C         44.93914        56.89396         1.11605
C         43.77130        56.19184         1.43498
C         45.02465        58.35631         1.39846
C         43.84051        59.06450         1.99172
C         45.04691        61.22948         1.82877
C         43.74755        60.53523         1.93098
C         45.02281        62.75947         1.86047
C         43.72053        63.43077         1.97854
C         44.90237        65.59743         1.68475
C         43.73674        64.84055         2.00482
C         44.88752        67.05730         1.80035
C         43.74910        67.75886         2.25467
C         44.89013        69.93683         1.95794
C         43.72802        69.18181         2.34376
C         44.93032        71.38065         2.01568
C         43.85471        72.07698         2.73432
C         44.89229        74.24806         2.16358
C         43.75618        73.54410         2.59661
C         46.24990        33.55388         0.08687
C         47.50281        35.67939        -0.16482
C         46.28318        34.95023        -0.16855
C         47.52850        37.05409        -0.41124
C         46.32907        37.72955        -0.72368
C         47.54333        39.95784        -0.48581
C         46.37509        39.17296        -1.04656
C         47.50512        41.38623        -0.96239
C         46.29942        42.08809        -0.96535
C         47.54099        44.20639        -0.80451
C         46.31084        43.53531        -0.87191
C         47.57378        45.62067        -0.42796
C         46.25949        46.34211        -0.33155
C         47.58220        48.45321        -0.01231
C         46.32627        47.83262        -0.58207
C         47.56282        49.73186         0.45973
C         46.29091        50.42388         0.89751
C         47.48271        52.65701         0.59568
C         46.30004        51.94262         0.71631
C         47.46072        54.10071         0.49935
C         46.19955        54.80721         0.68161
C         47.26301        56.97101         0.11969
C         46.10711        56.21446         0.62878
C         47.23846        58.47639         0.11799
C         46.06310        59.18821         0.70401
C         47.28273        61.36234         0.74480
C         46.18326        60.61261         1.11418
C         47.31380        62.80280         0.87746
C         46.15479        63.49942         1.28426
C         47.21928        65.66007         0.71231
C         46.05400        64.91420         1.21098
C         47.21194        67.15500         0.87493
C         46.02839        67.82311         1.44415
C         47.14801        69.97982         0.88848
C         46.02449        69.22869         1.50343
C         47.09032        71.48165         0.79176
C         45.97961        72.14112         1.49721
C         47.24840        74.27853         1.41217
C         46.05202        73.57487         1.69239
C         48.86798        37.76601        -0.28811
C         50.02074        39.87475        -0.93517
C         48.86249        39.23690        -0.66453
C         50.09006        41.32201        -1.26690
C         48.74831        42.09381        -1.27940
C         50.00860        44.22135        -1.10641
C         48.78848        43.54376        -1.06185
C         50.01531        45.70216        -1.07022
C         48.80994        46.40823        -0.59864
C         50.10126        48.46446        -0.11564
C         48.83702        47.75097        -0.27443
C         50.09486        49.77003         0.35019
C         48.82711        50.43503         0.69670
C         50.02633        52.63735         0.25796
C         48.78249        51.94722         0.69776
C         49.96608        54.14644         0.19074
C         48.65459        54.81300         0.37624
C         49.83523        57.03445         0.36527
C         48.59953        56.24540         0.06589
C         49.84728        58.49554         0.02204
C         48.53103        59.22769        -0.08594
C         49.74111        61.38840         0.47756
C         48.44728        60.75961        -0.03504
C         49.73895        62.86512         0.40248
C         48.53814        63.54190         0.57435
C         49.70618        65.73723         0.56595
C         48.52832        64.98673         0.61596
C         49.76159        67.15580         0.72704
C         48.51848        67.84184         1.04375
C         49.72368        70.03978         0.58505
C         48.49745        69.35525         0.97232
C         49.67586        71.48864         0.33741
C         48.36169        72.24070         0.52020
C         49.66350        74.31704         0.83626
C         48.43529        73.65715         0.93912
C         51.28242        42.11128        -1.00913
C         52.50850        44.24201        -1.00071
C         51.27096        43.51155        -1.08838
C         52.58712        45.63785        -0.92237
C         51.33397        46.43027        -0.97455
C         52.57556        48.41722        -0.23110
C         51.35386        47.79315        -0.39979
C         52.65624        49.78654         0.29951
C         51.34374        50.51029         0.60736
C         52.49799        52.71536         0.31611
C         51.33870        51.98829         0.46036
C         52.46399        54.17640         0.26584
C         51.22842        54.86197         0.35646
C         52.40404        57.10172         0.55123
C         51.13775        56.31517         0.58955
C         52.35219        58.56292         0.28578
C         51.13189        59.21522         0.21274
C         52.29615        61.46086         0.25206
C         51.05074        60.66722         0.45133
C         52.27313        62.87209         0.58543
C         51.01832        63.57721         0.30957
C         52.21529        65.78671         0.88997
C         51.00276        65.06562         0.39264
C         52.23192        67.24328         0.69691
C         50.96561        67.90534         0.67553
C         52.19643        70.05737         0.44458
C         50.94019        69.35137         0.60514
C         52.16964        71.51869         0.35977
C         50.94429        72.22250         0.44868
C         52.12735        74.34911         0.47103
C         50.90199        73.63889         0.55840
C         53.80023        46.35302        -0.83171
C         54.99089        48.52708        -0.68989
C         53.81989        47.76217        -0.60968
C         55.00561        49.94939        -0.46041
C         53.83981        50.58879         0.01137
C         55.00033        52.80714        -0.10469
C         53.85090        52.02491         0.47652
C         54.94041        54.22385        -0.12322
C         53.69534        54.89191         0.17028
C         54.82563        57.15762        -0.18434
C         53.68857        56.35869         0.34895
C         54.84771        58.62140         0.08438
C         53.60933        59.26981         0.23719
C         54.87311        61.45788         0.28040
C         53.61165        60.73066         0.13147
C         54.86098        62.84446         0.70910
C         53.50181        63.55883         0.91221
C         54.77958        65.80307         0.89536
C         53.51116        65.05227         1.03934
C         54.71778        67.19822         0.81527
C         53.45455        67.92781         0.70691
C         54.66546        70.07523         0.20645
C         53.40731        69.35793         0.50257
C         54.64409        71.56253         0.01881
C         53.36551        72.26708         0.21733
C         54.58156        74.48451        -0.02341
C         53.33250        73.67934         0.25675
C         56.18791        50.71463        -0.65620
C         57.35241        52.88778        -0.82559
C         56.19294        52.13478        -0.51653
C         57.35592        54.31354        -0.77753
C         56.11588        54.95946        -0.44222
C         57.35089        57.17452        -0.49335
C         56.06680        56.42547        -0.54720
C         57.33408        58.63803        -0.24017
C         56.05348        59.35063        -0.04664
C         57.32488        61.51436         0.08090
C         56.08661        60.77676         0.08196
C         57.33624        62.94256         0.36253
C         56.08263        63.67182         0.59455
C         57.30037        65.78850         1.01197
C         56.02678        65.04646         0.80970
C         57.28881        67.30030         0.99309
C         55.96363        68.00239         0.93909
C         57.22075        70.19630         0.36708
C         55.95327        69.47641         0.66591
C         57.17911        71.60741         0.14815
C         55.91920        72.30688         0.12176
C         57.05976        74.39839        -0.28291
C         55.87416        73.69592        -0.00630
C         58.50816        55.06145        -1.11142
C         59.79153        57.27413        -0.81471
C         58.52587        56.56498        -1.24025
C         59.80149        58.65110        -0.68376
C         58.49255        59.43403        -0.84632
C         59.76439        61.48442        -0.13321
C         58.54283        60.84187        -0.24888
C         59.86677        62.85695         0.48496
C         58.55237        63.60875         0.45125
C         59.86111        65.83074         0.64528
C         58.59713        65.03781         0.82209
C         59.79513        67.34806         0.60321
C         58.50915        68.06221         0.63017
C         59.64106        70.18090        -0.03022
C         58.44290        69.45330         0.34880
C         59.61815        71.60739        -0.09437
C         58.39856        72.35632        -0.04101
C         59.33816        74.52666        -1.06884
C         58.30609        73.76469        -0.38068
C         61.00384        59.40058        -0.65696
C         62.13381        61.58056        -0.77088
C         60.99174        60.80775        -0.50808
C         62.08272        63.00705        -0.71378
C         60.99465        63.66415        -0.12160
C         61.82609        65.85717        -1.00154
C         61.16178        65.14936         0.18694
C         62.02138        67.33930        -0.77756
C         60.98594        68.08554        -0.06040
C         61.94781        70.19731        -0.93924
C         60.83303        69.51049        -0.37636
C         61.97648        71.62168        -0.87338
C         60.89572        72.22442        -0.25101
C         61.76186        74.57105        -1.82765
C         60.68885        74.28409        -0.94163
C         63.17127        63.76834        -1.26790
C         64.15564        65.88554        -1.98306
C         63.10127        65.14811        -1.41038
C         64.14147        67.29790        -2.04100
C         63.03677        68.03250        -1.43076
C         64.18042        70.18401        -1.98746
C         63.07680        69.47011        -1.42423
C         64.21380        71.60343        -2.01785
C         63.21417        72.44291        -1.22677
C         63.98832        74.36101        -2.66932
C         62.94079        73.79954        -1.92131
C         65.21276        68.01057        -2.59233
C         66.34532        70.10262        -3.17234
C         65.25599        69.42894        -2.59028
C         66.34983        71.50470        -3.27133
C         65.25059        72.24977        -2.72033
C         66.24889        74.30641        -3.64378
C         65.18807        73.66867        -2.97451
C         67.41348        72.19945        -3.91692
C         67.36546        73.57589        -4.07867
O         50.26909        56.73664         1.72578
O         40.52984        43.89234        -2.29721
O         46.01565        39.54135        -2.40443
O         49.40128        41.65178        -2.51938
O         37.25137        57.33403         3.70867
O         48.60333        68.64327         2.26176
O         59.51301        65.30286         1.96846
O         50.62910        46.33264        -2.25835
O         36.75175        48.11499        -1.56416
O         28.41971        67.50009        -0.83812
O         52.87124        61.20979        -1.09571
O         40.50103        54.64598         0.13244
O         46.96896        66.56774        -0.43729
O         30.82841        69.79631         1.06474
O         57.69619        57.69426         0.83165
O         51.17272        64.45314        -0.92742
O         54.68404        70.63210        -1.14569
O         54.22090        62.94996         2.04059
O         49.91842        53.28552        -1.03806
O         57.35329        66.54509         2.25888
O         34.18550        70.13621        -0.22339
O         39.05720        68.16228         4.66103
O         42.20115        58.66494         3.68341
O         37.99594        63.07561         0.99268
O         49.23996        58.78278        -1.29047
O         46.90349        45.88570         0.88520
O         43.28841        50.86944        -1.03642
O         39.41824        51.84361         2.45420
O         46.73806        70.62517        -0.34861
O         45.40254        61.97067         3.03676
O         36.82922        60.88713         3.80791
O         43.20479        51.89459         2.39011
O         44.99903        58.63461         2.83089
O         30.12036        60.93096         1.75504
O         38.75425        54.92709         3.28038
O         61.05903        73.53604         0.19808
O         60.88495        67.88743         1.40454
O         52.69932        65.41826         2.22189
O         55.85322        68.98970         2.04219
O         41.87618        48.43439        -1.90501
O         29.20416        65.24585         0.41427
O         35.98376        56.95387         0.42730
O         58.24350        59.50707        -2.23153
O         52.16322        49.97112         1.69988
O         47.83822        56.49991        -1.14629
O         53.28197        56.79620         1.69291
O         50.32768        60.90365         1.73106
O         42.79373        66.12660         3.84647
O         43.03946        39.42403        -2.53986
O         46.41602        48.01949        -1.97587
O         35.17336        69.66685         4.17190
O         33.96526        67.45935         3.76227
O         46.15146        58.97470        -0.74197
O         30.08944        67.93842        -4.00658
O         48.87739        71.96366        -0.81299
O         48.91938        51.21390         1.96103
O         43.60716        71.60348         4.09160
O         55.12088        56.87558        -1.59509
O         34.01010        64.96659         3.75637
O         40.10852        57.37658         3.78748
O         37.45960        50.60716        -1.50437
H         36.94202        49.98944        -2.07456
O         35.88930        51.64592         2.52410
H         36.71651        51.42421         3.00302
O         34.60483        57.96845         3.68184
H         35.44880        57.68405         4.11462
O         63.87009        72.77184         0.03203
H         63.20840        73.25499         0.57579
O         29.19457        72.04845        -0.84934
H         29.39407        72.39187         0.04624
O         62.09189        65.24001         1.28638
H         61.57993        65.15426         2.12079
O         49.87361        37.06112        -1.02093
H         49.65276        37.11282        -1.97362
O         54.68014        75.59589         0.88007
H         54.84269        75.24765         1.78047
O         60.87010        65.75319        -2.10465
H         61.33034        66.00988        -2.93164
O         54.09914        51.95742         1.92834
H         53.44275        51.31136         2.29068
O         47.30226        39.99186         0.96339
H         47.99498        40.54853         1.37758
O         58.36970        56.87066        -2.65285
H         58.28357        57.88300        -2.71884
O         29.26472        56.30326        -0.25867
H         29.77316        56.27154        -1.09449
O         37.51974        70.11590         5.25354
H         37.83916        69.28103         5.66821
O         37.72294        75.54166         2.88955
H         38.01743        75.49822         1.95709
O         60.19306        62.65539         1.90749
H         60.03281        63.52100         2.35817
O         31.37375        70.97525        -3.57368
H         31.24808        70.27552        -4.24991
O         35.32546        52.80513        -0.89735
H         34.63702        53.38843        -1.27889
O         46.20644        50.21599         2.34315
H         47.05258        50.54773         2.72491
O         48.28487        61.22438        -1.39265
H         48.61876        60.52100        -1.99477
H         26.72222        74.88596        -6.69474
H         28.40483        74.96943        -4.86436
H         30.29042        75.03064        -3.27998
H         32.03791        75.11168        -1.48086
H         33.81964        75.11360         0.19337
H         35.61026        75.19445         1.82573
H         37.30803        74.29804         4.47094
H         40.10012        75.24537         3.26744
H         42.48637        75.27163         2.88932
H         44.88206        75.34800         2.17974
H         47.27871        75.35614         1.63420
H         49.70880        75.39211         1.06803
H         52.12681        75.44716         0.52838
H         54.46976        74.93353        -1.04947
H         56.98905        75.47175        -0.50976
H         58.99380        75.26124        -1.81261
H         61.65481        75.41843        -2.52401
H         63.87057        75.38838        -3.04856
H         66.19237        75.38757        -3.83480
H         26.05458        68.96470        -7.07532
H         25.25824        71.07329        -8.11873
H         25.28534        73.55933        -8.23476
H         27.51963        64.73411        -5.02632
H         26.81215        66.88850        -6.07685
H         28.56810        60.48450        -2.56946
H         28.15624        62.62934        -3.88224
H         29.49616        56.86323         1.70227
H         28.61571        58.51781        -0.91399
H         31.61405        52.15352         0.73791
H         30.44949        54.30861         0.56208
H         34.08319        47.83684         0.27772
H         32.85956        49.96765         0.68120
H         36.74098        43.59137         0.00265
H         35.51128        45.64076         0.26328
H         39.18158        39.37384        -0.42544
H         37.98451        41.45697        -0.31783
H         41.64757        35.12058        -0.39265
H         40.43777        37.20856        -0.53203
H         45.02644        31.78826         0.31935
H         42.87809        32.99287        -0.03762
H         47.19268        33.01581         0.26011
H         48.44637        35.15322         0.04103
H         49.16928        37.69995         0.79591
H         50.95715        39.29321        -0.95601
H         52.21155        41.59344        -0.72703
H         53.44251        43.65981        -0.97531
H         54.75493        45.81532        -0.93370
H         55.93234        48.03742        -0.97919
H         57.10785        50.20698        -0.98035
H         58.26640        52.35919        -1.13427
H         59.40336        54.50955        -1.43929
H         60.73354        56.70829        -0.71683
H         61.95955        58.89937        -0.88219
H         63.05671        61.09181        -1.11564
H         64.06344        63.23080        -1.62319
H         65.04752        65.34866        -2.34055
H         66.05040        67.45657        -3.04185
H         67.18095        69.52236        -3.59054
H         68.26848        71.62493        -4.30100
H         68.18999        74.09686        -4.58501
