         276
 CSIRO Nanostructure Databank - Neutral Graphene Oxide Data Set
C        -11.36711         0.43267        -0.50211
C        -10.45840         1.48422         0.08757
C         -8.74669         0.57132        -0.02348
C         -7.46662         1.26772        -0.29362
C         -6.19148         0.40892        -0.43784
C         -4.97460         1.28384        -0.10036
C         -3.80074         0.75356         0.66339
C         -2.47483         1.48653         0.65009
C         -1.23936         0.82062         1.19766
C          0.11381         1.54208         1.20462
C          1.19024         0.90557         0.35858
C          2.50747         1.64179         0.37563
C          3.79980         0.88174         0.47897
C          5.05060         1.59077         0.94917
C          6.33118         0.84256         0.71635
C          7.54361         1.65849         0.36785
C          8.83256         0.92246         0.07794
C         10.15311         1.59245         0.26780
C         11.35428         0.69795         0.31117
C         -9.89582         2.58831        -0.59732
C         -8.79721         3.50401        -0.02038
C         -7.47633         2.74776        -0.47873
C         -6.15681         3.41229        -0.59352
C         -4.91151         2.55725        -0.93977
C         -3.58337         3.33779        -0.82095
C         -2.34887         2.71689        -0.22064
C         -0.98968         3.44691        -0.21769
C         -0.04412         3.06572         0.92861
C          1.21754         3.85935         0.93944
C          2.51085         3.14046         0.68504
C          3.80320         3.88234         0.85783
C          5.06415         3.11643         1.13946
C          6.37729         3.85086         1.26739
C          7.58902         3.12046         0.71641
C          8.91037         3.82176         0.72306
C         10.20462         3.00530         0.84373
C         -8.65361         4.87302        -0.71552
C         -7.85279         5.85964        -0.29266
C         -5.84944         4.65561         0.20455
C         -4.85677         5.56143        -0.46123
C         -3.64641         4.84350        -1.01170
C         -2.34897         5.60440        -1.11708
C         -1.08002         4.93060        -0.65600
C          0.05965         5.83979        -0.27999
C          1.21686         5.30282         0.49429
C          2.52364         6.05759         0.58267
C          3.78874         5.38423         1.01274
C          5.12998         6.08099         0.85358
C          6.41836         5.37112         1.17102
C          7.79429         6.07741         1.08370
C          8.95026         5.17166         0.66940
C         -7.47658         7.09262         0.04150
C         -6.11106         7.66208         0.47706
C         -4.81541         7.00279        -0.04742
C         -3.63684         7.79731        -0.50827
C         -2.43217         7.12613        -1.12283
C         -1.17380         7.92861        -1.00093
C          0.13349         7.18844        -0.94400
C          1.38005         7.97553        -0.75720
C          2.62845         7.25921        -0.30505
C          3.93815         7.92235        -0.55101
C          5.21419         7.28980        -0.03301
C          6.52741         8.03394        -0.12299
C          7.71590         7.46908         0.49645
C         -6.03716         9.16739         0.31038
C         -4.98970         9.87616        -0.13156
C         -3.75654         9.29309        -0.79251
C         -2.46151        10.02284        -0.52547
C         -1.18823         9.27741        -0.25898
C          0.12066        10.05774        -0.44930
C          1.32421         9.45258        -0.59287
C          2.68636        10.13751        -0.40785
C          3.89564         9.37272        -1.05625
C          5.21921        10.07225        -0.78195
C          6.37934         9.48079        -0.43719
C        -11.22362        -0.91933        -0.53596
C        -10.04679        -1.78324        -0.30714
C         -8.66811        -1.31380        -0.73985
C         -7.58970        -1.64514         0.29917
C         -6.34057        -0.80002         0.48343
C         -5.13326        -1.39486         1.15249
C         -3.82224        -0.60186         1.42227
C         -2.53537        -1.42830         1.28801
C         -1.21817        -0.70013         1.30496
C          0.09632        -1.42195         0.91714
C          1.16551        -0.57895         0.22002
C          2.47090        -1.32828         0.07336
C          3.77641        -0.63959         0.35496
C          5.02844        -1.43860         0.60012
C          6.30738        -0.66380         0.42192
C          7.48587        -1.30817        -0.24933
C          8.78621        -0.57463        -0.16846
C          9.96926        -1.39119         0.32860
C         11.28007        -0.64211         0.19516
C        -10.07882        -3.07609         0.11136
C         -8.78290        -3.89410         0.17689
C         -7.67460        -3.04308         0.83547
C         -6.41650        -3.69857         1.36481
C         -5.13139        -2.89594         1.38515
C         -3.88703        -3.62404         0.91316
C         -2.66608        -2.74653         0.53175
C         -1.34601        -3.51433         0.46937
C         -0.14029        -2.69521         0.07354
C          1.10308        -3.42434        -0.32122
C          2.39087        -2.82807         0.16252
C          3.65754        -3.61204         0.09939
C          4.97720        -2.91962         0.28099
C          6.24269        -3.59577        -0.08274
C          7.45804        -2.81454        -0.52506
C          8.75336        -3.55501        -0.25584
C          9.93533        -2.85336        -0.06931
C         -8.91740        -5.22844         0.93847
C         -7.58901        -5.97696         0.95481
C         -6.36695        -5.22570         1.36990
C         -5.04531        -5.94154         1.36198
C         -3.83374        -5.13089         0.93723
C         -2.50874        -5.83683         0.81044
C         -1.31018        -5.00977         0.37556
C         -0.20935        -5.66797        -0.42906
C          1.05748        -4.89961        -0.66202
C          2.33968        -5.69348        -0.75084
C          3.65794        -5.02424        -0.45612
C          4.91575        -5.54645        -1.12386
C          6.24393        -4.79734        -0.98844
C          7.46549        -5.65794        -0.73772
C          8.67544        -4.97478        -0.39468
C         -7.51914        -7.28420         0.63312
C         -6.30169        -8.18007         0.75721
C         -5.00491        -7.44248         1.14023
C         -3.70908        -8.16430         0.90529
C         -2.45111        -7.33449         0.75518
C         -1.35330        -7.95713        -0.06131
C         -0.24944        -7.15937        -0.65181
C          0.99084        -7.93504        -1.18317
C          2.26714        -7.05867        -1.40323
C          3.57663        -7.76944        -1.58441
C          4.89601        -6.98486        -1.55578
C          6.22500        -7.74274        -1.61564
C          7.39319        -7.01807        -0.95818
C         -6.05280        -8.97981        -0.51165
C         -4.89528        -9.62277        -0.71658
C         -3.78211        -9.60779         0.32259
C         -2.44162       -10.20424        -0.23212
C         -1.17967        -9.42588         0.06598
C          0.07546        -9.95275         0.07476
C          1.26249        -9.18516        -0.32312
C          2.50210        -9.74692        -0.38903
C          3.56961        -9.29173        -1.38520
C          4.92687        -9.81707        -0.98349
C          6.07968        -9.14393        -1.06442
O          0.75987         0.27686        -0.87357
O         -4.82470         1.62586         1.29329
O          0.34620         3.77467         2.12236
O         -1.41522         5.04362        -2.07136
O         -1.87000         7.81418        -2.27780
O          3.33528         1.42061        -0.78662
O          8.10762        -0.73043        -1.43960
O          5.67240         3.40859         2.44344
O          0.34757        -2.61113        -1.27756
O          7.25405         2.66309        -0.65098
O          2.97487         6.09871         1.97740
O          0.14218         6.04226         1.16381
O         -3.71910         7.34394         0.88065
O         -4.18963        -4.42380        -0.30221
O         -1.44446        -7.49529        -1.45399
O         -2.09788        -6.63584         1.97041
O         -5.71597        -5.66763         2.61507
O         -2.66083         2.56070        -1.63966
O          3.20918         3.72957        -0.47054
O         -8.20452        -1.94285         1.59923
O          2.79424        -7.28125        -2.72091
O         -8.07194         0.97954         1.04495
O          3.41096         6.96117        -1.51753
O          7.28106        -2.91875        -2.00425
O          3.03482        -5.90737         0.53250
O         -6.14559        -0.64398         1.89810
O          4.78586        -5.90808        -2.53095
O          5.92510        -1.27195         1.70904
O          0.09988        -5.07555        -1.73451
O          6.06439         7.06937        -1.19316
O          0.68852        -8.58889        -2.37443
O         -0.90641        -4.29768         1.61279
O          6.47372        -4.12898        -2.28807
O          3.33632        -0.96470        -1.02151
O          2.88724        -3.47780         1.35114
O         -1.74755        -1.35582         2.49551
O          9.53948         1.55705        -1.04826
O         -2.09061         1.62706         2.05939
O          5.78230         1.02532         2.05480
O         -7.05298         3.35269        -1.74258
O         -4.70814         5.30114        -1.89462
O          5.80873        -3.69304         1.26247
O          5.69328         6.12713         2.20141
O         -4.28473        -8.08391         2.23852
O         -5.82218        -3.22420         2.61073
O         -6.05108         4.70046         1.41371
O          0.98114         7.43879        -2.08115
O         -8.40282        -1.23077        -1.95195
O          6.61658        -7.84899        -3.00704
H          6.26466        -7.05118        -3.46486
O         -3.86389        -0.26463         2.80855
H         -4.68488         0.25593         2.95909
O          8.18168         6.35461         2.47488
H          7.35783         6.61063         2.95429
O         -2.92754        -2.27397        -0.81167
H         -3.20677        -3.04336        -1.36075
O         -3.99567         9.44750        -2.22517
H         -3.21740         9.05675        -2.69432
O          2.95766        10.17854         0.99774
H          2.18499        10.56071         1.46316
O         -6.59955        -9.13182         1.81325
H         -6.48542        -8.66641         2.67013
O          3.69416         9.37129        -2.47414
H          3.47788         8.44688        -2.74501
O          9.70518        -1.42077         1.78071
H         10.46073        -1.86158         2.22402
O         -2.48267       -10.25327        -1.66840
H         -1.96540        -9.49824        -2.03239
O         -8.36170        -4.22482        -1.16211
H         -8.39782        -3.41652        -1.72324
O         -8.85938         3.67837         1.36885
H         -9.07692         2.82171         1.79807
O          0.61648         1.38233         2.54118
H         -0.04744         1.75280         3.16397
O         -5.00583         2.19265        -2.32023
H         -5.06677         3.01352        -2.85551
O         -4.16553       -10.49245         1.38582
H         -5.02809       -10.16627         1.74778
O         -1.17350         8.92443         1.16858
H         -2.05567         8.56641         1.41923
O          3.18268        -9.91522        -2.62467
H          2.32372        -9.48240        -2.88463
O         -6.12688         7.45146         1.90733
H         -6.14787         6.47729         2.07313
O         10.49683         2.87910         2.23969
H         10.46546         3.76658         2.65301
O         -0.22668         2.82778        -1.28244
H         -0.73206         2.93481        -2.12212
O          0.73046        -1.82445         2.14025
H          0.03667        -2.17481         2.74632
O         -9.34342        -4.97396         2.27805
H         -8.63532        -4.49416         2.75739
O         -6.03193        -0.14347        -1.73959
H         -5.85510         0.58579        -2.38121
O        -10.61481         1.58864         1.44736
H        -10.97211         0.75600         1.81621
H         12.20856        -1.23441         0.16201
H         12.34146         1.18625         0.32346
H         11.03668         3.57702         0.33809
H          9.93238         5.67216         0.63169
H          8.55295         8.14308         0.73558
H          7.28054        10.10288        -0.31935
H          5.22914        11.15676        -0.97363
H          2.64694        11.18309        -0.82328
H          0.07286        11.14867        -0.29760
H         -2.42419        11.09365        -0.77907
H         -5.05635        10.97520        -0.13746
H         -6.90210         9.71558         0.71738
H         -8.29520         7.73849         0.42211
H         -8.98527         4.90115        -1.77139
H         -9.88249         2.50940        -1.69670
H        -12.35907         0.81813        -0.79706
H        -12.12271        -1.47462        -0.85837
H        -11.02142        -3.56117         0.41220
H         -9.69669        -5.86427         0.45291
H         -8.44519        -7.80219         0.33481
H         -6.86632        -9.04627        -1.25029
H         -4.74439       -10.22124        -1.62774
H         -2.36516       -11.25456         0.14570
H          0.20204       -11.04248         0.18210
H          2.67166       -10.71850         0.10487
H          4.94697       -10.85558        -0.61583
H          7.01409        -9.64702        -0.76895
H          8.31228        -7.61531        -0.83920
H          9.59057        -5.57176        -0.25701
H         10.87726        -3.42044         0.01868
