         349
 CSIRO Nanostructure Databank - Neutral Graphene Oxide Data Set
C          1.21180         1.92007         0.90362
C          1.15792         3.31175         0.81385
C          2.43522         1.25052         0.90353
C          2.33401         4.09247         0.74980
C          1.12247         6.22477         0.18818
C          1.13164         7.61168         0.04187
C          2.27174         5.52407         0.59805
C          2.30553         8.38785         0.18651
C          1.27621        10.53140        -0.77254
C          1.37140        11.88209        -1.02673
C          2.18679         9.90435         0.25582
C          2.34192        12.71359        -0.42253
C          1.20980        14.88113        -1.19896
C          1.28209        16.22274        -1.46722
C          2.22949        14.16687        -0.42360
C          2.37951        17.04301        -1.07103
C          2.46927        18.39543        -1.47090
C          3.64493         1.97259         0.81811
C          3.60811         3.41353         0.76447
C          4.89901         1.30675         0.82171
C          4.82114         4.11866         0.63700
C          3.47476         6.31829         0.82513
C          3.51033         7.75141         0.51556
C          4.83013         5.56564         0.80447
C          4.76536         8.45433         0.66398
C          3.55659        10.61353         0.10341
C          3.45084        12.11375         0.43203
C          4.71422         9.92586         0.79922
C          4.79478        12.82420         0.23629
C          3.51454        14.97264        -0.04934
C          3.50202        16.44655        -0.34210
C          4.79302        14.25518         0.02002
C          4.83286        17.18728        -0.36520
C          3.66074        19.10837        -1.43367
C          4.88827        18.50671        -1.03138
C          6.10630         1.99747         0.66501
C          6.08305         3.44653         0.48365
C          7.35851         1.33838         0.77856
C          7.27011         4.15081         0.30216
C          5.99167         6.35594         0.33373
C          5.99788         7.80835         0.59834
C          7.27948         5.60501         0.08601
C          7.26400         8.51504         0.56888
C          6.01367        10.68890         0.81768
C          5.97426        12.11254         0.38905
C          7.28558         9.92587         0.69241
C          7.28172        12.77094         0.21272
C          6.00605        14.98707        -0.10185
C          6.06090        16.38890        -0.25753
C          7.29293        14.24721        -0.03842
C          7.31735        17.09069        -0.37659
C          6.11900        19.12187        -1.20822
C          7.34510        18.49846        -0.79733
C          8.57027         2.01692         0.58148
C          8.53151         3.39928        -0.02728
C          9.80649         1.39278         0.76977
C          9.80746         4.18148         0.16287
C          8.54335         6.36150         0.22311
C          8.50435         7.78579         0.40506
C          9.76192         5.64513         0.21740
C          9.73435         8.51654         0.45592
C          8.51833        10.63505         0.69381
C          8.48859        12.14102         0.90568
C          9.72530         9.93768         0.62376
C          9.78886        12.84680         0.54540
C          8.49647        15.02975         0.44694
C          8.50612        16.42442        -0.13344
C          9.79214        14.26233         0.32842
C          9.76911        17.16161        -0.09536
C          8.53472        19.20990        -0.86754
C          9.80671        18.65039        -0.42018
C         11.04066         2.01561         0.42733
C         10.99800         3.46088         0.11191
C         12.21558         1.25632         0.64523
C         12.23874         4.20923        -0.03880
C         10.97479         6.39277         0.32429
C         10.98065         7.80060         0.35982
C         12.24625         5.64947         0.32482
C         12.22654         8.54183         0.19643
C         11.03691        10.66049         0.86759
C         10.98041        12.14948         0.61305
C         12.16443        10.04673         0.02005
C         12.27994        12.90012         0.75673
C         11.02608        14.94215         0.08412
C         11.01033        16.37683        -0.32971
C         12.23818        14.28107         0.18138
C         12.28184        17.14172        -0.48349
C         11.10672        19.30194        -0.69638
C         12.30825        18.63288        -0.52075
C         13.48436         1.58876         0.07134
C         13.36493         3.64220        -0.55619
C         14.78485         1.38994         0.49519
C         14.69898         4.26010        -0.64669
C         13.50002         6.43044         0.07538
C         13.40909         7.89420        -0.04188
C         14.71322         5.74714        -0.47285
C         14.68756         8.62123        -0.20613
C         13.49580        10.75662         0.23935
C         13.52173        12.14266         0.35922
C         14.72340        10.05535         0.14283
C         14.76462        12.85994         0.31327
C         13.51699        14.92135        -0.30905
C         13.50891        16.41494        -0.05200
C         14.78188        14.26296         0.17709
C         14.78638        17.16438         0.07842
C         13.58395        19.27562        -0.52663
C         14.80365        18.60327        -0.28208
C         15.97108         2.10853         0.00508
C         15.94840         3.49306        -0.43184
C         17.21312         1.47442         0.17665
C         17.16211         4.21390        -0.55536
C         15.99916         6.37936        -0.20454
C         15.97622         7.85458        -0.14254
C         17.17469         5.68389        -0.39035
C         17.16335         8.55023         0.40887
C         15.96558        10.72060         0.25109
C         16.00377        12.14437         0.32001
C         17.21549        10.00965         0.27356
C         17.24368        12.83079         0.33170
C         16.00985        14.97417         0.20503
C         16.05257        16.40184         0.11319
C         17.24625        14.25831         0.33459
C         17.26060        17.09530         0.19636
C         16.05265        19.23287        -0.32725
C         17.27590        18.54904        -0.00987
C         18.43743         2.08503        -0.22212
C         18.37931         3.44501        -0.65094
C         19.71004         1.43635        -0.20959
C         19.57463         3.97611        -1.19296
C         18.41503         6.42081        -0.10678
C         18.43963         7.76963         0.53202
C         19.57663         6.02112        -0.68511
C         19.69502         8.55289         0.35484
C         18.44306        10.66144         0.18495
C         18.48723        12.10197         0.23312
C         19.68751         9.90250         0.11113
C         19.72215        12.76975         0.28152
C         18.47337        14.97004         0.45600
C         18.47490        16.36556         0.42430
C         19.72705        14.19001         0.81840
C         19.69225        17.12888         0.78143
C         18.47384        19.24487         0.03209
C         19.69649        18.62369         0.55276
C         20.90179         2.09950        -0.56881
C         20.83983         3.44197        -1.04261
C         22.19668         1.46458        -0.58627
C         22.04185         4.27647        -1.48549
C         20.92336         6.39388        -0.22412
C         20.96337         7.78578         0.33477
C         22.11173         5.68505        -0.80575
C         22.24468         8.50483         0.30818
C         20.89454        10.64198        -0.49159
C         20.95144        12.09351         0.01372
C         22.23056         9.86859        -0.36652
C         22.15070        12.81383         0.02194
C         20.99458        14.94011         0.52430
C         21.03998        16.40756         0.92464
C         22.14797        14.25394         0.25558
C         22.10917        17.14614         0.07784
C         20.99708        19.32800         0.48618
C         22.18015        18.63925         0.35312
C         23.34932         2.15262        -0.91640
C         23.36311         3.58945        -1.16121
C         24.61116         1.43303        -0.95933
C         24.55415         4.30259        -1.12964
C         23.34085         6.53593        -1.19788
C         23.30991         7.98484        -0.64732
C         24.63574         5.74750        -0.94815
C         24.65670         8.55345        -0.33236
C         23.46028        10.68623        -0.14462
C         23.43283        12.13405        -0.10727
C         24.64688         9.98254        -0.15451
C         24.62567        12.83766        -0.12152
C         23.44722        14.98492         0.23052
C         23.45435        16.46770         0.21622
C         24.64780        14.31075        -0.38478
C         24.65925        17.19337        -0.35641
C         23.45490        19.28862         0.36172
C         24.67386        18.62954         0.13483
C         25.78611         2.06743        -1.15862
C         25.87061         3.56564        -1.28406
C         27.05529         1.30740        -1.45594
C         26.91229         4.11975        -0.28809
C         25.82100         6.39118        -0.60605
C         25.82421         7.81307        -0.31153
C         27.15898         5.63593        -0.56252
C         27.11987         8.52610        -0.05436
C         25.93257        10.68129        -0.08157
C         25.92601        12.15746        -0.08395
C         27.05126         9.92327         0.57310
C         27.06369        12.86275         0.61366
C         25.94268        15.02632        -0.03401
C         25.94732        16.43456        -0.07992
C         27.13581        14.32135         0.23503
C         27.15363        17.13666         0.12653
C         25.90613        19.28742         0.25158
C         27.14813        18.58756         0.20264
C         28.31064         2.08634        -1.13859
C         28.23659         3.33994        -0.35884
C         29.52648         1.57998        -1.51122
C         29.54454         4.07234        -0.10126
C         28.18476         6.23541         0.43728
C         28.35429         7.73554         0.19027
C         29.54165         5.51324         0.35566
C         29.56604         8.42879         0.75575
C         28.34336        10.71371         0.55142
C         28.36406        12.08619         0.50889
C         29.57480         9.95494         0.83442
C         29.61598        12.82696         0.57839
C         28.36679        14.99829         0.35560
C         28.37808        16.42254         0.28696
C         29.60910        14.25825         0.52684
C         29.61245        17.13797         0.42113
C         28.36315        19.26611         0.32861
C         29.60007        18.56929         0.41405
C         30.74704         2.30203        -1.32490
C         30.77385         3.53544        -0.71662
C         31.97812         4.34242        -0.71429
C         30.84037         6.27287         0.35889
C         30.85674         7.75459         0.54418
C         32.02719         5.60195        -0.22390
C         32.01552         8.48549         0.63907
C         30.86385        10.66104         0.75859
C         30.84419        12.11911         0.68081
C         32.02253         9.90964         0.74744
C         32.04730        12.86143         0.73872
C         30.83364        14.97490         0.59877
C         30.84189        16.43375         0.56386
C         32.04062        14.24303         0.70526
C         32.03311        17.17745         0.67486
C         30.82299        19.27279         0.53166
C         32.01850        18.57692         0.65455
O          6.40305         6.03454        -1.03649
O         30.30204         5.63366         1.60163
O         23.73360        15.75593         1.44596
O         13.31837         2.36307        -1.10293
O         17.61703         8.01361         1.70415
O         14.66598         5.17534        -1.82208
O          5.21984        10.44580         2.04780
O         29.40120         9.08865         2.04732
O         13.16160         5.96577         1.44015
O         28.07606         8.28004        -1.13730
O         21.75825         5.49318         0.59397
O         15.48064         8.37883        -1.43347
O          3.97274        17.19899         0.82467
O         19.49003         5.22186        -1.82916
O          2.49683        14.67988         0.95379
O         26.30263        11.41908        -1.30154
O         21.81155         8.00458         1.56278
O         22.64720         9.00849        -1.63317
O          7.54538        13.31207        -1.12928
O         28.92741         3.22249         0.92551
O          9.81619        18.13463         0.99611
O          4.23752         6.00698         2.04630
O         11.60258        16.58460        -1.67304
O         13.93536        16.84316         1.26688
O         19.45391        18.02440         1.91896
O         24.45313        17.26013        -1.80098
H         25.23427        17.69873        -2.19878
O         20.59300        10.74607        -1.90838
H         21.13395        10.07736        -2.38346
O          8.31645        12.35393         2.33429
H          8.26360        13.33078         2.48433
O         26.30940         3.93843         0.99464
H         26.87164         4.39875         1.66317
O         27.05037         0.95310        -2.85489
H         27.02958         1.79416        -3.36073
O         26.31610         3.81478        -2.66395
H         25.53266         3.70094        -3.24421
O         13.53945        14.72664        -1.75894
H         12.76473        15.22234        -2.12696
O         21.96479         4.38748        -2.91868
H         22.51560         5.16140        -3.19319
O          3.09685        12.26015         1.83094
H          2.87204        13.21681         1.96438
O         26.67532         9.72066         1.95664
H         27.48274         9.41605         2.43630
O          8.26871        15.19543         1.89846
H          8.84505        15.92503         2.21652
O         21.69132        16.98813        -1.30246
H         22.48575        17.13431        -1.86925
O         19.71316        14.05015         2.28660
H         20.24961        14.79372         2.65596
O         23.29075         6.68043        -2.64970
H         22.99926         7.59959        -2.85328
O         27.70365         6.09176         1.78733
H         28.49990         6.04432         2.36849
O         11.78242        10.29392        -1.35914
H         12.49488         9.95751        -1.94280
O         26.69860        12.84713         2.02720
H         27.37519        13.35141         2.52549
O         12.42444        13.06674         2.22673
H         12.32605        12.16019         2.61016
O          1.58949        10.12354         1.55604
H          1.97279        10.95347         1.94282
O          3.89857        10.55082        -1.30870
H          3.95382         9.60894        -1.57529
O         27.83099         5.76426        -1.82873
H         27.26314         5.35057        -2.52252
O         24.48512        14.43716        -1.83461
H         25.10386        13.80778        -2.26314
O         11.39196        10.46366         2.26977
H         10.59341        10.65817         2.80733
O         21.38412        16.43076         2.32425
H         20.92033        17.21120         2.71598
O          8.45751         3.18120        -1.48765
H          7.61591         2.71178        -1.67162
H          0.27697         1.34662         0.97193
H          0.17736         3.80731         0.82007
H          2.46504         0.15326         0.96464
H          0.18434         5.68104         0.00913
H          0.18843         8.11948        -0.20198
H          0.46009         9.95136        -1.22694
H          0.62528        12.34168        -1.69311
H          0.38692        14.29891        -1.63570
H          0.48126        16.68935        -2.06012
H          1.57769        18.86986        -1.90749
H          4.91927         0.21369         0.94754
H          3.68332        20.13998        -1.81367
H          7.37519         0.27663         1.06878
H          6.16350        20.13098        -1.64496
H          9.82593         0.35409         1.13510
H          8.53037        20.21779        -1.30998
H         12.12052         0.33680         1.24515
H         11.10828        20.38748        -0.87995
H         14.96345         0.67141         1.31046
H         13.61302        20.36299        -0.69658
H         17.23414         0.44891         0.57477
H         16.10557        20.30645        -0.56483
H         19.76255         0.38252         0.10219
H         18.49868        20.31004        -0.24366
H         22.26856         0.39618        -0.33236
H         20.99956        20.42590         0.57551
H         24.58305         0.33532        -0.87633
H         23.48167        20.36153         0.61242
H         27.06374         0.34304        -0.88360
H         25.92118        20.36474         0.47871
H         29.56084         0.62295        -2.05140
H         28.36646        20.36497         0.38369
H         31.67412         1.88837        -1.74815
H         32.88389         3.89597        -1.15204
H         32.96962         6.16439        -0.27947
H         32.98954         7.98416         0.55146
H         33.00306        10.40433         0.72940
H         33.01027        12.34130         0.82641
H         33.00209        14.76981         0.75898
H         32.99988        16.66910         0.78503
H         30.81614        20.37202         0.52815
H         32.96565        19.12676         0.74513
