         424
 CSIRO Nanostructure Databank - Neutral Graphene Oxide Data Set
C          1.30077         1.95941        -0.54740
C          1.27347         3.35644        -0.77401
C          2.49751         1.29820        -0.38369
C          2.44383         4.10187        -0.79221
C          1.17872         6.31785        -1.04512
C          1.17262         7.66914        -0.94709
C          2.46668         5.55938        -1.21547
C          2.38396         8.43648        -0.75169
C          1.10616        10.71763        -0.58344
C          1.15234        12.06697        -0.56143
C          2.35054         9.95146        -0.97616
C          2.40196        12.81978        -0.70674
C          1.25459        14.99547        -1.18273
C          1.30486        16.36039        -1.38463
C          2.42926        14.24481        -0.89514
C          2.53183        17.07020        -1.29006
C          2.59702        18.49007        -1.48822
C          3.72718         2.02177        -0.40599
C          3.69277         3.44533        -0.57673
C          4.96525         1.35600        -0.29658
C          4.91411         4.18770        -0.52639
C          3.65575         6.31790        -0.66014
C          3.57891         7.75032        -0.54679
C          4.86939         5.63530        -0.50783
C          4.80878         8.48206        -0.04295
C          3.54258        10.63875        -0.27887
C          3.60951        12.12592        -0.57149
C          4.85276         9.90259        -0.60885
C          4.85272        12.80786        -0.45442
C          3.67767        14.93865        -0.80938
C          3.71908        16.35585        -0.98931
C          4.88698        14.22554        -0.54489
C          4.95887        17.06487        -0.83777
C          3.78102        19.17100        -1.37785
C          5.00207        18.49730        -1.03801
C          6.18184         2.06822        -0.32358
C          6.14863         3.50633        -0.40190
C          7.43150         1.39661        -0.25304
C          7.38703         4.23040        -0.34466
C          6.11841         6.36075        -0.35473
C          6.10975         7.75956        -0.28032
C          7.36379         5.66026        -0.32784
C          7.31570         8.49618        -0.16907
C          6.08974        10.66235        -0.20667
C          6.07946        12.07416        -0.22959
C          7.29247         9.93919        -0.08453
C          7.32079        12.78648        -0.13964
C          6.12459        14.94318        -0.37025
C          6.12116        16.36867        -0.47128
C          7.33833        14.22786        -0.18467
C          7.33900        17.14080        -0.16582
C          6.21329        19.19855        -0.95011
C          7.42373        18.55936        -0.57871
C          8.64943         2.09978        -0.25229
C          8.62298         3.54393        -0.28070
C          9.90101         1.43100        -0.19002
C          9.85161         4.27249        -0.23050
C          8.58130         6.38652        -0.21962
C          8.55693         7.80849        -0.14214
C          9.83082         5.68939        -0.17712
C          9.78119         8.53354         0.06197
C          8.52588        10.65029         0.03909
C          8.52733        12.06383        -0.04327
C          9.74956         9.92866         0.17924
C          9.82900        12.75180        -0.35271
C          8.59918        14.91444        -0.08747
C          8.63386        16.38308         0.05400
C          9.80683        14.23135        -0.10639
C          9.90664        17.08003        -0.21899
C          8.66036        19.21064        -0.56323
C          9.90275        18.52396        -0.39748
C         11.12423         2.13108        -0.21468
C         11.10854         3.58606        -0.26224
C         12.36172         1.46224        -0.10547
C         12.31005         4.30976        -0.28470
C         11.05721         6.41436        -0.04140
C         11.03232         7.82049         0.12508
C         12.30724         5.71599        -0.09873
C         12.26167         8.53681         0.30424
C         10.95757        10.66195         0.68452
C         11.03092        12.09012         0.24446
C         12.25286         9.93215         0.47453
C         12.21999        12.78492         0.37810
C         11.06462        14.92615        -0.07719
C         11.07659        16.35469        -0.27270
C         12.26067        14.21890         0.12401
C         12.35640        17.01515        -0.71783
C         11.13244        19.19986        -0.42899
C         12.37836        18.50551        -0.44479
C         13.60424         2.14166        -0.25746
C         13.59665         3.60960        -0.64657
C         14.80839         1.47925        -0.22727
C         14.83632         4.33659        -0.16465
C         13.53727         6.43364         0.08136
C         13.51252         7.82784         0.30562
C         14.79560         5.72059         0.10588
C         14.72876         8.55445         0.54711
C         13.46062        10.66345         0.64389
C         13.42168        12.07334         0.71261
C         14.71011         9.95348         0.70986
C         14.62416        12.85828         1.13598
C         13.53784        14.89770         0.10509
C         13.60837        16.30025        -0.26418
C         14.69387        14.20205         0.42902
C         14.81549        16.97809        -0.28572
C         13.59772        19.15694        -0.40045
C         14.85401        18.43772        -0.42982
C         16.07589         2.19319        -0.60830
C         16.06561         3.63322        -0.14196
C         17.32344         1.44686        -0.23849
C         17.25912         4.27748         0.20270
C         16.00510         6.43339         0.39089
C         15.97640         7.83597         0.59185
C         17.26261         5.70484         0.45419
C         17.18403         8.57367         0.79991
C         15.93529        10.69942         0.93122
C         15.91156        12.07280         1.08878
C         17.18825         9.95956         0.96121
C         17.15736        12.84914         1.42972
C         15.99106        14.82898         0.17263
C         16.06198        16.27580        -0.06838
C         17.26475        14.13082         0.61355
C         17.28796        16.92472        -0.08171
C         16.06241        19.07961        -0.50827
C         17.35621        18.32213        -0.65187
C         18.48428         2.07974         0.13803
C         18.49716         3.53342         0.34289
C         19.72863         1.35621         0.22885
C         19.65411         4.17048         0.73156
C         18.45538         6.37156         0.69285
C         18.49911         7.86887         0.60403
C         19.78701         5.67059         0.63104
C         19.63033         8.52044         1.37106
C         18.43772        10.68477         1.11364
C         18.44561        12.08742         1.27068
C         19.67630         9.99374         1.20972
C         19.65030        12.80212         1.34801
C         18.45833        14.94644         0.81916
C         18.49472        16.27522         0.39391
C         19.62240        14.30716         1.53431
C         19.71680        17.03792         0.53831
C         18.57083        19.08697        -0.21863
C         19.73165        18.43780         0.20711
C         20.90849         1.97756         0.60645
C         20.84967         3.37886         1.06154
C         22.17166         1.31372         0.66491
C         22.18070         4.12064         1.33662
C         20.83035         6.21425         1.67489
C         20.87534         7.74552         1.70037
C         22.17477         5.59206         1.34618
C         22.15595         8.45739         1.52202
C         20.87036        10.67940         1.38758
C         20.88044        12.10054         1.34478
C         22.16562         9.96310         1.73392
C         22.13384        12.81869         1.31978
C         20.92172        14.98804         1.20875
C         20.92920        16.39343         0.92934
C         22.11984        14.25121         1.24952
C         22.16661        17.12266         0.99048
C         20.97812        19.13623         0.25349
C         22.18894        18.52319         0.59664
C         23.37002         1.99176         0.86154
C         23.41809         3.40695         1.03123
C         24.65503         1.20082         0.88511
C         24.61735         4.15385         0.87789
C         23.32395         6.30515         1.10083
C         23.31068         7.78055         1.16617
C         24.58840         5.59510         0.88085
C         24.54368         8.50661         0.94187
C         23.27917        10.63752         0.94025
C         23.35420        12.11730         1.22472
C         24.58968         9.89952         1.00205
C         24.58887        12.79205         1.20370
C         23.36641        14.94287         1.20511
C         23.36068        16.36827         1.25944
C         24.59786        14.22950         1.25390
C         24.59743        16.97905         1.57556
C         23.40853        19.25911         0.30589
C         24.62852        19.00008         0.91246
C         25.88946         2.02484         0.60181
C         25.85186         3.46199         0.64999
C         27.07053         1.36645         0.34509
C         27.05463         4.19556         0.47107
C         25.78247         6.30252         0.66876
C         25.73491         7.78111         0.38189
C         27.02253         5.62557         0.49598
C         27.03746         8.50582         0.60944
C         25.81426        10.62814         0.92657
C         25.83698        12.05890         1.08997
C         27.04874         9.91212         0.77781
C         27.06239        12.74075         1.19102
C         25.82850        14.93828         1.31233
C         25.85096        16.34586         1.42571
C         27.06798        14.17984         1.52280
C         27.09841        17.11098         1.34964
C         25.96090        19.28850         0.53145
C         27.09900        18.53914         0.95100
C         28.29981         2.07407         0.14519
C         28.28915         3.51103         0.22721
C         29.49292         1.39451        -0.11216
C         29.49202         4.23461         0.05641
C         28.24617         6.35762         0.33243
C         28.24088         7.79520         0.42966
C         29.47183         5.67065         0.12910
C         29.46520         8.52107         0.27613
C         28.28940        10.63040         0.71901
C         28.31910        12.07344         0.98781
C         29.45872         9.94083         0.39324
C         29.52293        12.76661         1.06013
C         28.35963        14.95556         1.71033
C         28.30306        16.42208         1.44626
C         29.68832        14.16104         1.65454
C         29.58731        17.14861         1.39380
C         28.33938        19.18870         0.77883
C         29.58596        18.57108         1.00503
C         30.71968         2.09322        -0.27283
C         30.72322         3.53376        -0.17948
C         31.92256         1.40305        -0.51452
C         31.94180         4.23530        -0.30701
C         30.68548         6.40834        -0.05291
C         30.66233         7.80721         0.00031
C         31.94929         5.69099        -0.25177
C         31.87356         8.56987        -0.47328
C         30.66802        10.76940         0.03352
C         30.80671        11.98330         0.95046
C         31.94624         9.99666        -0.01326
C         32.01027        12.80109         0.52497
C         30.85364        14.90918         1.01565
C         30.89386        16.37714         1.19585
C         31.95344        14.24435         0.53094
C         32.06080        17.13536         0.71756
C         30.79122        19.25059         0.82077
C         32.04169        18.56518         0.69597
C         33.15500         2.08733        -0.62271
C         33.16634         3.52369        -0.49298
C         34.37893         1.39852        -0.80600
C         34.40933         4.20587        -0.54530
C         33.14097         6.37350        -0.33274
C         33.17186         7.85593        -0.08303
C         34.46701         5.66865        -0.19168
C         34.38993         8.59805        -0.68558
C         33.17642        10.67264         0.06453
C         33.18649        12.12486         0.26637
C         34.39314         9.98913        -0.11996
C         34.44687        12.83785         0.10862
C         33.12287        14.98384        -0.10521
C         33.21106        16.43803         0.30068
C         34.43698        14.24617         0.04074
C         34.38102        17.13855        -0.00106
C         33.21865        19.26376         0.35316
C         34.40404        18.57133         0.00680
C         35.60739         2.08247        -0.86678
C         35.61324         3.51942        -0.74986
C         36.84829         1.39343        -0.98821
C         36.87526         4.23579        -0.79333
C         35.60400         6.38261        -0.93564
C         35.68840         7.84073        -0.55430
C         36.90415         5.64620        -0.77004
C         36.89308         8.48413        -0.44984
C         35.66371        10.67297         0.11773
C         35.67160        12.14048         0.02065
C         36.95450         9.92076        -0.06962
C         36.89874        12.82055        -0.15537
C         35.64516        14.93847        -0.14481
C         35.54258        16.38162        -0.58445
C         36.86579        14.23550        -0.22036
C         36.81741        17.15912        -0.57661
C         35.56933        19.25563        -0.43237
C         36.78698        18.56754        -0.71556
C         38.07196         2.07697        -0.97766
C         38.09538         3.51033        -0.88020
C         39.32428         1.37923        -1.07825
C         39.33701         4.21360        -0.91438
C         38.12900         6.36035        -0.76148
C         38.14493         7.78330        -0.63436
C         39.36430         5.63994        -0.84769
C         39.36726         8.50868        -0.71232
C         38.17586        10.68983        -0.39231
C         38.14951        12.09448        -0.37216
C         39.37163         9.95671        -0.67870
C         39.35752        12.82520        -0.67966
C         38.14283        14.97308        -0.30131
C         38.10407        16.47870        -0.50997
C         39.36701        14.25239        -0.70464
C         39.29818        17.15795        -1.02163
C         37.99125        19.25461        -1.03994
C         39.21156        18.56229        -1.26776
C         40.51631         2.05629        -1.09303
C         40.55878         3.48642        -1.01920
C         41.77859         4.20486        -1.05088
C         40.59904         6.34644        -0.90562
C         40.59322         7.79574        -0.88985
C         41.79784         5.58846        -1.00049
C         41.78567         8.54447        -1.06694
C         40.57896        10.66644        -0.91261
C         40.56321        12.11320        -0.94690
C         41.77708         9.92416        -1.10056
C         41.72879        12.86100        -1.25091
C         40.52672        14.97725        -1.05166
C         40.49988        16.44109        -1.21269
C         41.70858        14.23981        -1.31861
C         41.63602        17.16558        -1.63831
C         40.38318        19.24602        -1.68934
C         41.57026        18.54635        -1.86155
O         16.82165        14.01138        -0.77005
O         36.43327        10.14953         1.28915
O         21.38409         3.51943         2.40982
O          7.86508        16.89739         1.19084
O         27.60222        14.51817         2.88495
O         38.32983        15.86337         0.84834
O         32.92560        15.03402        -1.53141
O         30.45391        16.82058         2.52849
O         19.94823         8.21590         2.76772
O         24.55621        18.24866         2.11857
O         35.26236         6.30489        -2.37380
H         36.10070         6.34857        -2.88139
O         12.34712        16.88878        -2.18706
H         13.17481        17.29988        -2.51763
O          2.69078         5.50905        -2.67681
H          2.72624         6.43690        -2.99374
O         30.09296        13.91974         3.04125
H         29.26262        13.93716         3.57625
O         24.58709         0.07262         0.00368
H         24.55609         0.40512        -0.91657
O         30.45983        11.24625        -1.32952
H         30.60495        10.47207        -1.92385
O         17.55495        18.14692        -2.11800
H         18.29662        17.51416        -2.23158
O         31.08066        11.46780         2.28139
H         30.97489        12.23166         2.90204
O         18.87971         8.16838        -0.81126
H         18.09257         7.98455        -1.36852
O         35.21180        16.28720        -2.01979
H         34.30323        15.80914        -2.04900
O         14.37683        13.20032         2.55229
H         15.26275        13.31704         2.98185
O         34.23595         8.75849        -2.14465
H         34.47449         7.87596        -2.54085
O         19.41160        14.51938         3.00381
H         19.48998        15.48403         3.16905
O         16.07732         2.25267        -2.10072
H         16.90512         2.70682        -2.36905
O         22.40504        10.18162         3.14621
H         21.67731         9.74313         3.63810
O          4.98538         9.73996        -2.05734
H          5.33948        10.57718        -2.42509
O         20.37526         5.91565        -0.68998
H         20.02696         6.78654        -1.01322
O         10.77706        10.71122         2.16274
H         10.86042         9.79198         2.49575
O         25.53196         7.84056        -1.09156
H         25.46626         8.78842        -1.33639
O         33.26978         8.01080         1.35709
H         34.01960         7.44279         1.66044
O         34.82298         5.74407         1.23339
H         34.23664         5.12600         1.71967
O          9.99637        12.59645        -1.82272
H          9.34845        13.19294        -2.25508
O         22.86033        10.53392        -0.46231
H         23.49585        11.04464        -1.00619
O         17.03726        13.23510         2.83746
H         17.88679        13.68248         3.10923
O          3.26192        10.55190         1.13553
H          4.07405        10.79048         1.62923
O          4.71557         8.55495         1.41089
H          4.61517         7.63895         1.74448
O         13.65550         3.64628        -2.11057
H         14.45876         3.12559        -2.37082
O         20.43413         5.75702         2.97486
H         19.93937         6.49202         3.40615
O          2.42746        10.10762        -2.41853
H          3.30279         9.74343        -2.69913
O         31.66414         8.66339        -1.91850
H         32.53987         8.90408        -2.32525
H          0.35426         1.40102        -0.53197
H          0.30105         3.83588        -0.95061
H          2.52035         0.20801        -0.24237
H          0.22531         5.78711        -1.17943
H          0.21294         8.20666        -0.96740
H          0.14865        10.19693        -0.43434
H          0.23069        12.63444        -0.36288
H          0.28954        14.47713        -1.26722
H          0.38438        16.91504        -1.61817
H          1.67085        19.02975        -1.73468
H          4.98222         0.25981        -0.20309
H          3.80940        20.25886        -1.53752
H          7.44288         0.29732        -0.20351
H          6.22802        20.27347        -1.18649
H          9.91446         0.33189        -0.13451
H          8.69100        20.28877        -0.78433
H         12.37029         0.37333         0.05748
H         11.14036        20.30095        -0.42840
H         14.84461         0.39740        -0.02636
H         13.62842        20.25620        -0.34258
H         17.33971         0.36352        -0.43511
H         16.09380        20.17756        -0.58473
H         19.73511         0.28955        -0.04249
H         18.62584        20.15359        -0.48729
H         22.21228         0.23180         0.46750
H         20.99243        20.18772        -0.07012
H         24.76290         0.77430         1.92350
H         23.36015        20.00487        -0.50134
H         27.07492         0.26737         0.29939
H         26.14955        20.17092        -0.09951
H         29.48887         0.29645        -0.17872
H         28.33388        20.24053         0.45523
H         31.90585         0.30625        -0.59937
H         30.76458        20.33058         0.61148
H         34.36913         0.30034        -0.87377
H         33.20112        20.36232         0.30586
H         36.84278         0.29642        -1.07302
H         35.55218        20.35384        -0.49780
H         39.31101         0.28146        -1.14528
H         37.96988        20.34852        -1.14946
H         41.46455         1.50408        -1.16971
H         42.72494         3.64911        -1.12266
H         42.76922         6.10011        -1.03164
H         42.74285         8.02448        -1.20622
H         42.72862        10.44770        -1.26123
H         42.67452        12.34393        -1.45970
H         42.63764        14.76266        -1.58032
H         42.59458        16.65617        -1.80142
H         40.34197        20.32887        -1.87287
H         42.47499        19.08000        -2.18520
