         280
 CSIRO Nanostructure Databank - Neutral Graphene Oxide Data Set
C         30.61605        31.54163        -1.20649
C         30.72533        32.71403        -1.62377
C         30.93487        35.76930        -2.28423
C         30.99924        36.96403        -2.67875
C         31.15250        41.36760        -2.24084
C         30.83999        42.57308        -2.24945
C         32.69553        28.89173         0.37096
C         31.66937        29.36885        -0.17183
C         32.74961        31.49730        -0.16217
C         31.58642        30.73946        -0.53047
C         32.71266        32.98625        -0.21545
C         31.60503        33.69850        -0.98294
C         32.88642        35.90403        -1.01995
C         31.80491        35.08011        -1.44136
C         32.98550        37.28808        -1.39477
C         31.99903        37.86526        -2.25875
C         32.93644        40.33097        -1.00000
C         31.92597        40.22250        -1.96747
C         32.87547        41.43498        -0.10762
C         30.89473        43.95274        -1.99252
C         32.81622        44.16879        -0.25642
C         31.85138        44.31554        -1.01804
C         35.37059        27.53092         1.63119
C         35.13726        28.81102         1.05693
C         33.98125        29.44632         0.58462
C         35.19299        31.63013         0.24012
C         33.96285        30.86637         0.24761
C         35.23705        33.02604         0.19182
C         33.92963        33.79820         0.25709
C         35.23421        35.97590         0.16826
C         34.13004        35.13562        -0.53787
C         35.35911        37.36482        -0.43032
C         34.04194        38.11584        -0.61451
C         35.40648        40.24787        -0.51272
C         34.22222        39.54980        -1.18658
C         35.32938        41.47956         0.09152
C         34.04168        42.15513         0.22003
C         35.14901        44.32944         0.60612
C         33.98307        43.60139         0.32366
C         35.34834        45.74523         0.56641
C         37.74322        27.52607         2.05024
C         36.41971        26.89357         1.87102
C         37.69591        28.93216         1.42507
C         36.44482        29.43584         0.75941
C         37.73831        31.61174         0.19001
C         36.46091        30.88461         0.20267
C         37.74220        32.99998         0.15911
C         36.48556        33.75169         0.17457
C         37.76560        35.88310         0.16680
C         36.52561        35.16430         0.13166
C         37.78242        37.29216         0.04296
C         36.58667        37.99679        -0.39561
C         37.92542        40.14078         1.17434
C         36.63003        39.44223        -0.82944
C         37.75443        41.48852         0.87944
C         36.40248        42.13707         0.99680
C         37.61421        44.37990         0.87447
C         36.43596        43.66727         0.82087
C         37.78292        45.90780         0.65406
C         36.37212        46.43237         0.70231
C         40.16099        24.68017         1.79695
C         39.16900        25.41110         2.07916
C         40.25505        27.41227         1.58539
C         39.02901        26.80404         2.00216
C         40.29642        28.88274         1.31149
C         38.99906        29.62069         1.11817
C         40.27903        31.48003        -0.06024
C         38.96839        30.71496         0.05820
C         40.25843        32.98635        -0.09320
C         38.99280        33.74207         0.14220
C         40.28928        35.80822         0.57195
C         39.00553        35.12211         0.23269
C         40.30448        37.30015         0.67810
C         39.10207        38.04252         0.09507
C         40.29089        40.16079         0.53463
C         39.09020        39.43241         0.70312
C         40.19013        41.61662         0.55763
C         38.88169        42.32778         0.33255
C         40.14608        44.49864         1.05514
C         38.89093        43.63982         1.18209
C         40.15128        45.79588         1.41911
C         38.76470        46.45801         1.71061
C         40.08927        48.56999         1.66306
C         39.03343        47.93091         1.67252
C         42.55285        24.59143         0.73026
C         41.36874        25.18640         1.29043
C         42.60397        27.34357         0.71654
C         41.39241        26.62473         1.23990
C         42.78318        28.74040         1.31088
C         41.55881        29.51093         0.80253
C         42.83251        31.52537         0.26775
C         41.55485        30.74570         0.22974
C         42.88318        32.96071        -0.17271
C         41.57853        33.73147        -0.12387
C         42.97352        35.87237         0.64941
C         41.61740        35.11326         0.47549
C         42.91095        37.36829         0.33498
C         41.61698        38.06668         0.56433
C         42.68987        40.27032        -0.29535
C         41.51983        39.50965         0.28819
C         43.09466        41.47177         0.52071
C         41.24223        42.37424         0.94767
C         42.74408        44.41404         0.87128
C         41.39348        43.80632         0.53265
C         42.75304        45.83593         1.38904
C         41.41539        46.58268         1.13565
C         42.74181        48.62487         1.46929
C         41.45494        48.13640         2.02932
C         43.58083        25.17750         0.35525
C         45.10761        27.27958         0.02835
C         43.79943        26.60805         0.14855
C         45.29919        28.66758         0.27932
C         44.25106        29.39045         1.14260
C         45.46024        31.59563         0.67932
C         44.10884        30.86456         0.70507
C         45.41186        32.98712         0.02441
C         44.09613        33.73460         0.11407
C         45.36677        35.90361        -0.28638
C         44.01814        35.20467        -0.27048
C         45.34909        37.38765        -0.21297
C         44.03452        38.04201        -0.07563
C         45.25478        40.27566        -0.14777
C         43.98956        39.45152        -0.66277
C         45.19039        41.76440        -0.64706
C         44.01035        42.38354         0.10084
C         45.23583        44.39797         0.80282
C         43.96291        43.76938         0.59630
C         45.31198        45.90853         1.10183
C         43.99407        46.59609         0.71530
C         43.77874        48.00609         1.19727
C         47.31820        27.24272        -1.05849
C         46.22543        26.77006        -0.62168
C         47.48625        28.64504        -0.88523
C         46.52500        29.32878        -0.07375
C         48.06072        31.54011         0.87349
C         46.73523        30.84546         0.08410
C         47.99600        33.03066         0.41945
C         46.64319        33.79468         0.51087
C         47.92001        35.96200         0.06026
C         46.65446        35.16973        -0.15227
C         47.85031        37.38390        -0.56890
C         46.52836        38.08537        -0.29643
C         47.78994        40.34606        -0.78080
C         46.51935        39.55886        -0.56570
C         47.75324        41.91151        -0.88571
C         46.47412        42.45810        -0.23604
C         48.29036        44.79120        -0.03178
C         46.40776        43.60767         0.53239
C         47.61269        46.05275        -0.12780
C         46.48928        46.35927         0.29101
C         50.62177        28.82647         0.43118
C         49.47810        29.47131         0.95228
C         50.42326        31.49194        -0.14353
C         49.35682        30.83282         0.49931
C         50.48049        33.02088        -0.01100
C         49.11094        33.68961         0.01214
C         50.38416        35.90054        -0.39749
C         49.06930        35.11995        -0.54485
C         50.38708        37.42435        -0.33450
C         49.07336        38.21550        -0.08209
C         50.27279        40.32658        -0.67326
C         49.08356        39.63244        -0.63304
C         50.23887        41.77957        -0.53406
C         49.10372        42.55101        -0.51700
C         50.32387        44.35229        -1.53442
C         49.21353        44.03189        -0.72053
C         51.52283        29.40173        -0.24224
C         52.57842        31.56784        -1.23922
C         51.58748        30.75747        -0.59945
C         52.44045        32.80492        -1.38793
C         51.50456        33.75178        -0.93551
C         52.50659        36.05171        -1.44450
C         51.53448        35.12576        -0.98954
C         52.55082        37.30294        -1.37362
C         51.54977        38.19622        -0.91464
C         52.44863        40.45186        -1.61258
C         51.51228        39.58445        -1.00686
C         52.64394        41.60600        -2.09551
C         52.02794        42.75626        -1.54625
C         51.37540        43.89789        -2.08420
O         44.85936        29.40827         2.41363
O         42.22362        33.44700        -1.38568
O         40.19473        32.18695        -1.33715
O         51.47419        42.43350        -0.26718
O         40.92828        37.77951         1.87659
O         37.58449        28.70853         2.86337
O         43.27312        31.56868         1.67859
O         47.00234        39.79775        -1.92570
O         42.29631        41.77637         1.63110
O         46.11933        35.36069        -1.48550
O         47.66873        44.07347         1.00821
O         42.78968        27.21418        -0.72969
O         44.08429        39.31935        -2.03790
O         50.70775        36.59189         0.83829
O         31.88811        39.13806        -2.80282
O         31.52627        33.55231         0.46971
O         37.50881        39.90991        -1.55871
O         40.89220        35.13386         1.73993
O         36.49728        29.70713        -0.66639
O         39.75441        29.82044         2.32626
O         48.88582        34.88811        -1.95473
H         48.39745        35.65326        -2.34937
O         45.64496        31.78767         2.10209
H         45.32285        30.90606         2.52592
O         33.68186        34.02641         1.66568
H         32.70304        34.10740         1.77611
O         38.84109        43.21577         2.56682
H         38.65762        44.01910         3.10849
O         41.34404        46.92433        -0.25089
H         40.41677        47.18274        -0.45860
O         43.49084        35.43541        -1.59435
H         44.19468        35.24997        -2.25238
O         38.30274        46.06405         2.99736
H         38.79133        46.58039         3.67273
O         45.60764        46.13895         2.48487
H         46.46575        45.71060         2.69221
O         48.61542        28.88991         1.77786
H         48.01900        29.57042         2.17750
O         33.49092        38.32826         0.70683
H         33.81247        37.59112         1.29189
O         51.04824        33.24150         1.31131
H         50.47854        32.78733         1.96919
O         48.06963        31.43654         2.29963
H         47.24000        31.83909         2.66057
O         30.13708        44.86882        -2.62848
H         29.55371        44.43725        -3.28278
O         42.95006        45.81073         2.82410
H         43.91072        45.66472         3.00879
O         34.70571        34.68684        -1.79538
H         34.91761        35.47271        -2.34270
O         45.23589        40.30332         1.28907
H         45.44587        39.40910         1.63295
O         48.49857        29.28972        -1.50101
H         49.07756        28.64499        -1.95328
O         45.36253        32.84750        -1.41216
H         45.65246        33.71216        -1.81103
O         47.97451        37.30429        -2.00801
H         47.56291        38.13006        -2.38009
O         31.65974        41.82483         0.32476
H         31.73588        42.60544         0.90973
O         38.62242        42.68566        -1.03693
H         38.62806        41.85773        -1.56666
O         45.04101        41.76293        -2.07256
H         44.67751        40.86090        -2.34174
O         36.95048        39.42860         1.79724
H         36.29170        40.06472         2.17207
O         42.17787        40.79634        -1.53971
H         42.66803        40.26365        -2.23722
O         34.52652        39.39818        -2.58555
H         34.81245        40.26281        -2.94646
O         41.27612        43.83122        -0.92006
H         41.37556        44.76627        -1.20393
O         35.90868        41.85906         2.34392
H         35.02873        42.28219         2.44077
O         43.39973        35.69239         2.00312
H         42.60431        35.80661         2.57442
O         39.50756        38.19044        -1.30476
H         38.87197        38.82168        -1.73521
O         48.14842        36.10831         1.46797
H         47.65680        35.40126         1.95601
O         48.97442        38.48537         1.32754
H         49.34389        37.69817         1.79830
O         41.51087        47.94767         3.39647
H         42.28025        47.35819         3.59336
O         47.05312        31.30800        -1.23551
H         46.50691        30.83372        -1.89563
O         42.56941        28.58538         2.71555
H         43.40934        28.93341         3.13836
O         38.88044        29.97473        -1.18425
H         39.03029        30.61769        -1.91356
O         43.92632        46.52421        -0.68866
H         43.08678        46.94810        -0.98073
O         34.91181        36.25013         1.56315
H         34.66435        35.39292         1.99866
O         47.64271        42.23870        -2.28754
H         46.71448        42.00371        -2.56622
O         46.42231        34.16792         1.89846
H         45.93673        33.43621         2.36217
O         38.37874        46.15167        -0.61396
H         37.83480        45.72419        -1.30829
