         324
 CSIRO Nanostructure Databank - Neutral Graphene Oxide Data Set
C         30.52698        57.21974         1.16866
C         30.50230        58.62680         1.01749
C         29.28342        59.36453         1.05453
C         30.46887        61.45330         0.67952
C         29.28193        60.74727         0.86561
C         32.93935        52.91070         0.97851
C         32.94770        54.32188         0.97096
C         31.77211        55.07850         1.21527
C         32.95650        57.22205         0.85906
C         31.73935        56.50089         1.10519
C         32.94033        58.60302         0.67968
C         31.72577        59.32891         0.78734
C         32.93198        61.48137         0.63571
C         31.72721        60.77780         0.67565
C         35.34505        48.61176         0.73863
C         35.31125        50.01915         0.56731
C         34.12812        50.75466         0.79189
C         35.32213        52.85202         0.32354
C         34.11286        52.16320         0.70267
C         35.32823        54.29450         0.33713
C         34.18689        55.00320         0.69135
C         35.35654        57.13897         0.11314
C         34.27151        56.49153         0.97362
C         35.45734        58.62947         0.31678
C         34.15312        59.37765         0.19489
C         35.48824        61.48324         0.49593
C         34.22493        60.74757         0.87040
C         37.76137        44.34376         1.19016
C         37.72075        45.71867         0.88478
C         36.54988        46.47802         0.87626
C         37.72265        48.55974         0.13481
C         36.52777        47.87612         0.55929
C         37.72278        49.95193        -0.04194
C         36.51237        50.70882         0.17154
C         37.67888        52.82090        -0.56891
C         36.48653        52.11363         0.02398
C         37.80903        54.25842        -0.11605
C         36.60265        55.00466         0.17763
C         37.92264        57.09896         0.41461
C         36.64412        56.37724         0.27363
C         37.92908        58.59614         0.36528
C         36.62929        59.31568         0.30086
C         37.92169        61.44831         0.07216
C         36.66036        60.78844         0.30040
C         40.22435        40.12674         0.66289
C         40.19024        41.47270         1.03734
C         38.99891        42.21936         1.14045
C         40.23657        44.37486         1.17486
C         38.98963        43.63479         1.19399
C         40.26730        45.71864         0.78329
C         38.97472        46.32997         0.38022
C         40.26765        48.44774        -0.26678
C         38.95012        47.75492        -0.07678
C         40.23430        49.93482        -0.45989
C         38.95330        50.67120        -0.33202
C         40.20608        52.77225        -0.62438
C         38.97116        52.04798        -0.42914
C         40.18374        54.16811        -0.68992
C         39.00978        54.90653        -0.30343
C         40.14791        57.12207        -0.77047
C         39.22001        56.33697         0.15227
C         40.20441        58.60452        -0.62550
C         39.13844        59.30550        -0.13419
C         40.32863        61.45582        -0.49571
C         39.11340        60.76775        -0.17792
C         42.67491        36.20587        -0.92336
C         42.67629        37.43346        -0.25707
C         41.46110        38.12257         0.00884
C         42.72088        40.10561         0.76062
C         41.45175        39.42241         0.51976
C         42.73639        41.44667         1.10300
C         41.46634        42.13847         1.38256
C         42.76695        44.40009         1.56178
C         41.46919        43.64489         1.52239
C         42.70319        45.90938         1.32356
C         41.46883        46.49836         0.75828
C         42.72827        48.56474         0.15318
C         41.51872        47.81503         0.22941
C         42.71589        49.98494        -0.17310
C         41.49633        50.68183        -0.32791
C         42.70430        52.78222        -0.56610
C         41.47929        52.07356        -0.55424
C         42.72007        54.17857        -1.02652
C         41.39352        54.88762        -1.12175
C         42.64358        57.12221        -1.30649
C         41.33989        56.37673        -1.27289
C         42.56807        58.57522        -1.67043
C         41.34566        59.33056        -1.23766
C         42.71012        61.42295        -1.17256
C         41.46437        60.78463        -0.96442
C         45.07474        33.75730        -2.46179
C         43.87668        34.37286        -2.09627
C         45.13243        36.06971        -0.86811
C         43.88843        35.54432        -1.30204
C         45.15005        37.21429         0.06084
C         43.92644        38.04218         0.17065
C         45.21843        39.95941         1.13322
C         43.95565        39.34525         0.62796
C         45.24410        41.45943         1.32441
C         44.00866        42.23341         0.88531
C         45.24440        44.37101         1.18747
C         44.03992        43.68746         1.33556
C         45.29939        45.85655         1.18474
C         43.99249        46.64497         1.15258
C         45.20940        48.60179         0.27543
C         43.98817        47.96304         0.49638
C         45.22307        49.97319        -0.34452
C         43.93242        50.72588        -0.18383
C         45.13400        52.99361        -0.02051
C         43.92610        52.12025        -0.33548
C         45.17551        54.30917        -0.76320
C         43.98913        54.93417        -1.04216
C         45.23901        57.08279        -1.50810
C         43.95500        56.39232        -1.25972
C         45.17365        58.52898        -1.85556
C         43.87592        59.29423        -1.84951
C         45.14032        61.40446        -1.45381
C         43.90614        60.75159        -1.53383
C         46.29953        34.29337        -2.06722
C         47.60319        36.09346        -0.96440
C         46.34964        35.45953        -1.26286
C         47.68949        37.28546        -0.25465
C         46.49542        37.81160         0.44223
C         47.87604        39.94322         1.13536
C         46.52531        39.20182         1.02881
C         47.76485        41.44161         0.81692
C         46.53920        42.20708         1.24328
C         47.68774        44.36344         0.76037
C         46.48947        43.67107         0.96859
C         47.71601        45.80726         0.63054
C         46.50630        46.53572         0.67849
C         47.70530        48.62164         0.12106
C         46.47172        47.92661         0.39566
C         47.73438        50.02476        -0.11192
C         46.46041        50.75158         0.03918
C         47.70866        52.92319        -0.43406
C         46.46384        52.24915         0.00608
C         47.65034        54.28614        -0.85919
C         46.43850        54.99971        -0.92224
C         47.70340        57.19690        -1.01313
C         46.42367        56.41592        -1.26515
C         47.74773        58.54949        -1.71978
C         46.46441        59.30305        -1.88597
C         47.55138        61.42448        -1.13754
C         46.41659        60.75864        -1.56743
C         48.88775        38.04828        -0.24285
C         50.16536        40.07157         0.07558
C         48.98410        39.33590         0.28928
C         50.32264        41.45719         0.34057
C         49.03960        42.20667         0.59725
C         50.08473        44.43423         1.01873
C         48.95594        43.67412         0.80898
C         50.18466        45.82189         0.67983
C         48.94415        46.51122         0.49243
C         50.17505        48.60748         0.16895
C         48.94555        47.91583         0.23629
C         50.18413        50.03077        -0.08100
C         48.93056        50.75501        -0.23030
C         50.16318        52.88828        -0.74075
C         48.91576        52.18429        -0.45919
C         50.16146        54.18746        -1.19039
C         48.87468        54.93674        -1.47244
C         50.24279        57.13747        -1.54831
C         48.97757        56.40373        -1.14600
C         50.21373        58.58785        -1.12227
C         49.00519        59.32903        -1.51291
C         50.00849        61.36273        -0.39266
C         48.89336        60.83297        -1.15703
C         51.56029        42.03772         0.01466
C         52.73005        44.32890        -0.19120
C         51.91810        43.38102         0.37451
C         52.70353        45.73620         0.26167
C         51.43059        46.44814         0.47631
C         52.62841        48.58572         0.35662
C         51.42682        47.88990         0.30648
C         52.66304        50.08013         0.34904
C         51.38511        50.71121        -0.12671
C         52.66897        52.80103        -0.08566
C         51.46568        52.10040        -0.69155
C         52.64531        54.12937         0.37647
C         51.40381        54.96147        -1.53863
C         52.54759        57.02497        -0.45871
C         51.47554        56.38681        -1.04762
C         52.64621        58.54617        -0.66125
C         51.30848        59.24999        -0.65551
C         52.33474        61.27711         0.33572
C         51.21229        60.65623        -0.25918
C         53.87333        46.44856         0.29521
C         55.15721        48.63965         0.46627
C         53.89066        47.87485         0.76625
C         55.17753        49.96783         0.13851
C         53.91811        50.63425        -0.38665
C         55.10453        52.83399         0.08476
C         53.91293        52.13822        -0.17993
C         55.06962        54.25632         0.19419
C         53.81272        54.93416         0.24147
C         54.94492        57.08942         0.27338
C         53.75226        56.35714         0.04764
C         54.88667        58.52899         0.44110
C         53.69502        59.21806         0.18019
C         54.66583        61.26828         1.11748
C         53.56387        60.59500         0.54669
C         56.38896        50.74042         0.20009
C         57.55989        52.91934         0.32768
C         56.36872        52.13289         0.17647
C         57.52546        54.29718         0.39644
C         56.27355        55.00000         0.32490
C         57.36787        57.15717         0.83016
C         56.19344        56.41570         0.47571
C         57.26107        58.54890         1.13563
C         56.01703        59.22364         0.96805
C         57.04365        61.30887         1.78566
C         55.90949        60.61868         1.29302
C         58.81888        55.06788         0.52285
C         59.74358        57.22312         1.37167
C         58.63814        56.51044         0.94202
C         59.65522        58.60553         1.72302
C         58.40001        59.26877         1.59512
C         59.44309        61.34550         2.39687
C         58.28764        60.65903         1.92980
C         60.77817        59.32969         2.18410
C         60.66048        60.68369         2.51708
O         40.33467        49.01156        -1.61997
O         40.25597        56.73506        -2.18105
O         46.51480        51.50699         1.29201
O         44.46117        58.84914        -3.11348
O         38.05533        57.89288         1.66464
O         45.92304        41.86777         2.53448
O         44.79973        46.57304         2.36320
O         47.22209        58.77045        -3.04292
O         48.11707        41.81965        -0.53607
O         52.24972        54.53275        -2.32487
O         45.83204        36.86699         1.32431
O         38.83320        46.65397        -1.05311
O         42.00268        54.29346        -2.32163
O         45.78980        39.25376         2.28478
O         51.21832        43.81093         1.52572
O         41.37135        42.78340         2.70743
O         42.64554        45.35328         2.67003
O         49.26687        60.33197        -2.50062
O         43.30701        57.00925        -0.00001
O         41.58226        58.95578        -2.65560
O         34.91454        56.96106        -1.27792
H         35.69688        57.03874        -1.86417
O         34.28992        60.49436         2.31338
H         34.45964        61.34789         2.76373
O         48.70335        54.83588        -2.95312
H         47.83296        55.23546        -3.17371
O         50.33225        57.14750        -3.01155
H         49.95277        56.29306        -3.33558
O         34.70073        56.62456         2.35696
H         33.98434        56.28412         2.93213
O         59.51186        55.03582        -0.74401
H         58.93675        55.45711        -1.41562
O         53.86037        50.28610        -1.77661
H         53.11329        50.80136        -2.18434
O         37.41424        52.88319        -2.01583
H         38.23126        53.20645        -2.45309
O         44.88054        53.43705         1.35157
H         45.22888        52.72727         1.94195
O         53.14137        58.66697        -2.03657
H         52.45176        58.29348        -2.63128
O         51.78817        51.91095        -2.11998
H         52.01183        52.81372        -2.48425
O         47.58893        57.61781         0.40922
H         47.46304        56.80561         0.94618
O         45.38334        49.78553        -1.79494
H         44.57881        49.33555        -2.13055
O         39.94805        56.22280         1.40215
H         39.53505        56.86416         2.03108
O         52.85412        50.48756         1.76383
H         52.00360        50.33158         2.22880
O         44.16009        42.27475        -0.58672
H         43.33403        42.63134        -0.97633
O         53.84188        47.85304         2.24675
H         53.74463        48.79551         2.52217
O         33.93735        59.60344        -1.22448
H         33.98531        58.71785        -1.65614
O         48.31036        39.84102         2.50647
H         47.49454        39.80513         3.06109
O         51.52986        54.62350         0.98657
H         51.69131        55.54548         1.27366
H         29.58325        56.67716         1.32735
H         28.33689        58.82980         1.21815
H         30.44833        62.54693         0.56840
H         28.32731        61.29223         0.88097
H         32.00770        52.37704         1.21917
H         30.83046        54.54424         1.41230
H         32.91848        62.58272         0.59674
H         34.43051        48.09037         1.05833
H         33.20759        50.22097         1.07159
H         35.49845        62.58459         0.52192
H         36.82407        43.79870         1.37639
H         35.60642        46.00538         1.18907
H         37.92486        62.54848         0.03447
H         39.28552        39.60849         0.41678
H         38.03632        41.69465         1.04577
H         40.36054        62.54973        -0.37817
H         41.71464        35.76321        -1.22712
H         40.50753        37.63730        -0.24714
H         42.78020        62.49832        -0.94528
H         45.05246        32.84724        -3.07747
H         42.91529        33.95007        -2.42065
H         45.14243        62.47271        -1.18564
H         47.23847        33.81495        -2.38009
H         48.51579        35.67987        -1.41987
H         47.44891        62.44981        -0.74937
H         49.75412        37.64808        -0.79281
H         51.01914        39.53959        -0.37454
H         49.89918        62.33743         0.10664
H         52.30408        41.40074        -0.49069
H         53.41203        44.06645        -1.01354
H         52.26280        62.33554         0.62726
H         54.82745        45.95124         0.06678
H         56.09638        48.15398         0.77908
H         54.56759        62.32995         1.38725
H         57.34230        50.21565         0.36883
H         58.52815        52.40064         0.39674
H         56.95547        62.37493         2.04223
H         59.49226        54.55019         1.25443
H         60.71816        56.71777         1.44572
H         59.36456        62.41033         2.65905
H         61.74767        58.82048         2.28016
H         61.54342        61.23100         2.87612
