         661
 CSIRO Nanostructure Databank - Neutral Graphene Oxide Data Set
C          6.24620        31.66656         2.04107
C          6.35169        32.99021         2.31839
C          8.35740        27.29091         0.23039
C          8.56238        28.71508         0.79980
C          7.29067        29.49319         1.09155
C          8.46260        31.64815         0.92957
C          7.47601        30.84137         1.74008
C          8.57419        33.14245         1.20175
C          7.58016        33.75083         2.11835
C          8.96331        35.78685         2.23313
C          7.76537        35.04198         2.54533
C          8.99368        37.16082         2.34516
C         10.94461        23.10132        -0.57503
C         10.94237        24.47996        -0.45702
C          9.71271        25.23051        -0.24730
C         10.98046        27.30571         0.03539
C          9.69223        26.56773         0.00928
C         10.96840        28.82345        -0.04273
C          9.58304        29.51699        -0.08735
C         10.47908        31.87813        -0.32063
C          9.60962        31.00135         0.28525
C         10.83190        33.18686         0.18824
C          9.87318        33.78179         0.98996
C         11.08946        35.90941         0.88380
C         10.20086        35.01886         1.78062
C         11.40574        37.22132         1.63390
C         10.12602        37.95581         1.94846
C         11.18917        40.11642         1.36975
C         10.08891        39.33042         1.87159
C         11.19486        41.50038         1.43981
C         13.38876        18.81685        -0.97604
C         13.37883        20.22667        -0.94520
C         12.16524        20.96098        -0.81468
C         13.41103        23.07169        -0.83477
C         12.16267        22.35689        -0.74320
C         13.41888        24.48621        -0.73819
C         12.19526        25.20131        -0.52557
C         13.44707        27.31062        -0.42851
C         12.21661        26.59285        -0.35377
C         13.45538        28.74473        -0.40911
C         12.23214        29.46170        -0.50194
C         13.46038        31.61543        -0.60146
C         12.32089        30.81327        -0.83602
C         13.37186        33.06813        -0.39283
C         12.18838        33.77227        -0.00579
C         13.49333        35.86210         0.13143
C         12.31179        35.15797         0.35775
C         13.60242        37.29719         0.49136
C         12.40368        38.04138         0.88615
C         13.45289        40.17470         0.27939
C         12.35708        39.42092         0.82570
C         13.25315        41.63286        -0.02490
C         12.25877        42.29674         0.90679
C         13.39582        44.48152         0.67585
C         12.32701        43.65184         1.15543
C         13.48956        45.81442         1.02591
C         15.77745        14.49683        -0.81397
C         15.76169        15.89736        -1.02576
C         14.59135        16.65846        -1.03258
C         15.82657        18.81497        -1.17602
C         14.59622        18.09286        -1.08897
C         15.85181        20.22354        -1.13195
C         14.62312        20.93954        -1.03415
C         15.87415        23.06680        -1.16349
C         14.63544        22.35961        -1.00672
C         15.86995        24.48114        -1.03752
C         14.65847        25.19263        -0.80898
C         15.88948        27.34887        -0.76338
C         14.66478        26.61578        -0.66743
C         15.89857        28.74279        -0.59875
C         14.68122        29.47142        -0.51166
C         15.92766        31.63481        -0.60710
C         14.67838        30.90691        -0.51676
C         15.87429        33.09534        -0.66394
C         14.62716        33.77479        -0.46493
C         15.84605        35.91975        -0.71062
C         14.66388        35.19545        -0.35058
C         15.80142        37.39891        -0.78556
C         14.79702        38.08874         0.07503
C         15.79261        40.30360        -0.49567
C         14.66708        39.56174        -0.06815
C         15.74844        41.73956        -0.51052
C         14.54998        42.38599        -0.18399
C         15.71878        44.64053        -0.40119
C         14.45822        43.85261        -0.14585
C         15.79777        46.01673         0.13368
C         14.65471        46.61567         0.75099
C         15.87903        48.74366         0.91749
C         14.72180        47.96667         1.14041
C         15.93391        50.12703         1.28380
C         18.21077        10.25566        -0.16574
C         18.21499        11.64856        -0.34015
C         17.00793        12.37202        -0.53438
C         18.25091        14.49940        -0.71727
C         16.98590        13.76919        -0.71539
C         18.28718        15.86558        -0.90095
C         17.05576        16.57850        -1.26507
C         18.36235        18.80657        -1.11508
C         17.08844        18.08644        -1.36531
C         18.36427        20.22760        -1.17920
C         17.09795        20.94903        -1.26717
C         18.37296        23.03994        -1.81502
C         17.09526        22.33772        -1.37206
C         18.28370        24.54289        -1.58440
C         17.10657        25.21094        -1.17304
C         18.30620        27.36145        -1.27423
C         17.11833        26.63072        -1.06199
C         18.19026        28.83844        -1.53268
C         17.21886        29.46586        -0.51702
C         18.41922        31.69751        -0.66282
C         17.11444        30.95601        -0.69868
C         18.34485        33.12399        -1.20812
C         17.05401        33.82732        -0.87113
C         18.26713        35.94263        -1.46726
C         17.03161        35.23718        -1.00596
C         18.25443        37.47558        -1.58326
C         16.98985        38.19601        -1.21423
C         18.22419        40.38637        -1.23267
C         17.11750        39.58373        -0.60225
C         18.20989        41.79396        -1.06370
C         16.97858        42.48959        -0.75698
C         18.15953        44.64899        -0.82247
C         16.97726        43.90155        -0.66686
C         18.10993        46.14871        -0.79825
C         16.97334        46.74790        -0.03688
C         18.22614        48.87778         0.11595
C         17.03072        48.11868         0.33022
C         18.14792        50.36519         0.16430
C         17.03800        50.92836         0.99747
C         18.26002        53.07887         1.14592
C         17.11111        52.29265         1.36658
C         18.32102        54.42401         1.56614
C         20.52431         5.95356         1.02021
C         20.66356         7.33826         0.43084
C         19.38374         8.11846         0.22496
C         20.68098        10.23482         0.17554
C         19.39944         9.48626         0.05885
C         20.69001        11.70343         0.00762
C         19.47410        12.38703        -0.34808
C         20.76583        14.43068        -0.85202
C         19.48346        13.76414        -0.55511
C         20.80439        15.93249        -1.14622
C         19.55323        16.61472        -0.56887
C         20.77155        18.79102        -0.71431
C         19.54477        18.09542        -0.88245
C         20.77758        20.21184        -0.71235
C         19.57134        20.94010        -0.98148
C         20.82315        23.02729        -0.91712
C         19.62442        22.38056        -1.19378
C         21.15451        24.34934        -1.36697
C         19.38527        25.34099        -1.88898
C         20.81449        27.38015        -1.48091
C         19.51280        26.70666        -1.56646
C         20.82553        28.79635        -1.52799
C         19.54622        29.54521        -1.64377
C         20.86724        31.73938        -1.25857
C         19.57783        31.01350        -1.36211
C         20.87029        33.14252        -1.18590
C         19.61923        33.91010        -0.79008
C         20.76197        36.00321        -1.62466
C         19.58020        35.30411        -1.35440
C         20.71992        37.46117        -1.70334
C         19.55086        38.17226        -1.49203
C         20.80875        40.41997        -1.33843
C         19.51931        39.65080        -1.25478
C         20.66414        41.89183        -1.66480
C         19.40891        42.56692        -1.24615
C         20.60412        44.75494        -1.11741
C         19.37738        43.97697        -1.13156
C         20.58962        46.14991        -0.75563
C         19.41755        46.82528        -0.52906
C         20.66637        48.97251        -0.25528
C         19.41786        48.24486        -0.24632
C         20.66533        50.39784         0.03680
C         19.45981        51.06274         0.33543
C         20.68393        53.16973         0.55208
C         19.47893        52.44047         0.64123
C         20.63132        54.67477         0.59794
C         19.48414        55.20928         1.42411
C         20.78356        57.25106         1.92442
C         19.57445        56.49103         1.96187
C         20.85374        58.49626         2.57616
C         23.00185         3.21968         1.75072
C         21.76341         3.87274         1.57757
C         22.97915         6.01025         1.19108
C         21.69198         5.26239         1.29345
C         22.93022         7.45159         1.61129
C         21.59564         8.16164         1.36578
C         22.88629        10.38998         1.57749
C         21.84152         9.56655         0.83329
C         22.97085        11.82307         1.02878
C         21.88540        12.37796         0.17268
C         23.37465        14.44234        -0.48441
C         22.04423        13.68657        -0.48394
C         23.21338        15.94395        -0.27042
C         22.04077        16.64132        -0.59623
C         23.18635        18.79108        -0.17496
C         22.00121        18.06280        -0.48282
C         23.14795        20.22624        -0.05293
C         21.98128        20.90738        -0.34714
C         23.08186        23.17336         0.25869
C         21.79366        22.35290         0.03910
C         23.09939        24.67476         0.07469
C         22.02279        25.25646        -0.77825
C         23.22972        27.41904        -0.99319
C         22.01233        26.67680        -1.11580
C         23.25398        28.79545        -1.30815
C         22.04353        29.52596        -1.44782
C         23.27766        31.71382        -1.48060
C         22.05763        30.98996        -1.42960
C         23.28057        33.10841        -1.60318
C         22.06541        33.87040        -1.49142
C         23.21924        36.00879        -2.31079
C         22.02144        35.28519        -1.69751
C         23.29017        37.43799        -1.83923
C         21.99027        38.20503        -2.07379
C         23.35389        40.14941        -2.07984
C         22.12423        39.58692        -1.41825
C         23.27692        42.26461        -1.94087
C         21.91422        42.79458        -1.81450
C         23.04226        44.67413        -0.62634
C         21.83281        44.14813        -1.30449
C         23.11834        46.13895        -0.48655
C         21.88449        46.88754        -0.93545
C         23.13547        48.95756        -0.38576
C         21.86906        48.29748        -0.44731
C         23.10354        50.42950        -0.43789
C         21.87622        51.12814        -0.02127
C         23.16380        53.25795         0.22174
C         21.89638        52.52341         0.21021
C         23.18070        54.63778         0.60022
C         21.96153        55.32114         0.91537
C         23.23060        57.39916         1.35173
C         21.97086        56.63758         1.36763
C         23.28532        58.72533         2.05391
C         22.06267        59.22043         2.73437
C         23.41348        61.12307         3.50929
C         22.16739        60.41231         3.44359
C         24.22001         3.86654         1.66191
C         25.50870         6.09252         1.64042
C         24.29380         5.29391         1.33651
C         25.49989         7.44181         1.74575
C         24.21714         8.20317         1.81192
C         25.43784        10.36990         1.71828
C         24.24434         9.68002         1.64459
C         25.50050        11.80522         1.48603
C         24.28939        12.50873         1.02747
C         25.58141        14.52512         0.67323
C         24.43541        13.83500         0.41179
C         25.60038        16.01937         0.64310
C         24.37222        16.66929         0.07072
C         25.66909        18.74998         0.18819
C         24.39231        18.07085         0.05029
C         25.67059        20.20615         0.39911
C         24.36266        20.97049         0.38631
C         25.57947        23.14547         0.13594
C         24.38777        22.45911         0.24229
C         25.64785        24.59972         0.01393
C         24.40957        25.46663         0.21509
C         25.66900        27.43751        -0.57721
C         24.45946        26.76125        -0.58066
C         25.78654        28.81660        -1.03102
C         24.55924        29.48667        -1.62351
C         25.82110        31.68135        -1.49682
C         24.53711        30.97552        -1.08814
C         25.83549        33.15705        -1.47386
C         24.56627        33.80260        -1.88170
C         25.83521        36.03896        -1.99553
C         24.55483        35.26334        -2.19551
C         25.77125        37.47646        -1.71656
C         24.52424        38.12094        -1.63942
C         25.77737        40.38767        -1.60929
C         24.55448        39.59299        -1.72387
C         25.74258        41.95701        -1.62252
C         24.39828        42.60777        -1.25661
C         25.52704        44.55803         0.08349
C         24.27725        43.83882        -0.43247
C         25.61342        46.00027        -0.49647
C         24.31524        46.79228        -0.37568
C         25.62396        48.94392        -0.30974
C         24.34361        48.25006        -0.37088
C         25.65828        50.40242        -0.30712
C         24.40782        51.17890        -0.43664
C         25.63713        53.24301         0.16498
C         24.38489        52.58494         0.00267
C         25.66510        54.62848         0.49012
C         24.44355        55.32081         0.73119
C         25.73367        57.36724         1.20892
C         24.49574        56.68833         1.09654
C         25.77145        58.83629         1.60716
C         24.63876        59.15836         2.60106
C         24.58467        60.59332         3.05969
C         26.79799         8.17197         2.02489
C         27.85661        10.39595         2.16619
C         26.72048         9.68763         1.95051
C         27.84595        11.89128         2.34451
C         26.68063        12.51887         1.62641
C         27.97808        14.60837         1.27541
C         26.75710        13.89684         1.23847
C         28.07282        15.95279         0.79889
C         26.89286        16.57065         0.07635
C         28.13861        18.76959         0.15260
C         26.87112        18.07663         0.17206
C         28.10773        20.21489        -0.06749
C         26.93198        20.91429         0.12398
C         28.14784        23.12817         0.00607
C         26.87002        22.39497         0.21013
C         28.12443        24.58683        -0.30725
C         26.84099        25.28404        -0.12044
C         28.09514        27.41986        -0.10629
C         26.89379        26.72831        -0.23886
C         28.01447        28.91055         0.06308
C         26.95144        29.51191        -0.83104
C         28.31779        31.71383        -0.98592
C         27.08453        30.92114        -1.28295
C         28.22383        33.17856        -0.87333
C         27.01833        33.84879        -1.28266
C         28.22177        36.08310        -0.97506
C         27.09520        35.30611        -1.55682
C         28.20492        37.51839        -1.05127
C         27.07985        38.24024        -1.80110
C         28.26644        40.48657        -1.43162
C         26.96449        39.72653        -1.47916
C         28.14497        41.88712        -0.85555
C         26.89341        42.59032        -0.83376
C         28.04772        44.48240         0.43888
C         26.82322        43.83821        -0.22949
C         28.04045        46.04420         0.51381
C         26.79349        46.77026         0.08671
C         28.13277        48.89832        -0.38048
C         26.80405        48.22555        -0.18926
C         28.11500        50.34491         0.13515
C         26.83791        51.09431        -0.09494
C         28.10997        53.22337         0.05908
C         26.85950        52.52213         0.02701
C         28.11903        54.59731         0.31422
C         26.91640        55.31158         0.58246
C         26.92039        56.68526         0.93962
C         29.15003        12.60731         2.11345
C         30.41142        14.70022         1.76769
C         29.19176        13.93936         1.73765
C         30.46969        16.03769         1.37447
C         29.26667        16.67333         0.84705
C         30.68171        18.62806         0.14710
C         29.31058        18.05591         0.42582
C         30.67931        20.15527        -0.00932
C         29.40772        20.90614        -0.28813
C         30.55730        23.15803         0.37717
C         29.42279        22.43637        -0.42284
C         30.76286        24.58790        -0.17930
C         29.43023        25.34005        -0.25466
C         30.49611        27.45687         0.52135
C         29.36866        26.77531         0.09379
C         30.49205        28.91689         0.57176
C         29.35810        29.58363         0.06647
C         30.41080        31.83857         0.49151
C         29.45023        31.00398        -0.26978
C         30.48321        33.26361         0.14725
C         29.34984        33.92376        -0.42782
C         30.40032        36.11822         0.26386
C         29.30295        35.37041        -0.44710
C         30.51837        37.56404        -0.16276
C         29.34187        38.26088        -0.65299
C         30.52123        40.39674        -0.39039
C         29.38258        39.68898        -0.77339
C         30.55528        41.82298        -0.43210
C         29.32872        42.54678        -0.48339
C         30.51778        44.64634        -0.07691
C         29.33377        43.94623        -0.12368
C         30.67163        46.07959         0.36714
C         29.39203        46.79745         0.85089
C         30.54053        48.96726        -0.28561
C         29.33025        48.35428         0.42541
C         30.52578        50.32588        -0.51072
C         29.35362        51.11860        -0.24448
C         29.33124        52.48955        -0.21461
C         31.68290        16.79092         1.49042
C         33.02545        18.81388         1.04592
C         31.80523        18.09735         1.01518
C         33.09738        20.19958         0.74750
C         31.77312        20.92066         0.72925
C         33.00890        23.09587         0.68092
C         31.85899        22.39600         0.43240
C         32.94841        24.55042         0.92473
C         31.82545        25.27385         0.64595
C         32.98710        27.45593         1.08482
C         31.67198        26.70298         1.11166
C         32.87793        28.89890         1.35089
C         31.67094        29.63474         0.93307
C         32.86375        31.90373         1.29693
C         31.60833        31.09054         1.11785
C         32.90637        33.28369         0.75861
C         31.70428        33.96855         0.40244
C         32.93168        36.06919         0.41902
C         31.72199        35.38099         0.27616
C         32.91141        37.53524         0.53814
C         31.67923        38.24130         0.15135
C         33.04625        40.45592         0.11964
C         31.69379        39.70399         0.14695
C         33.03705        41.86170        -0.31193
C         31.78498        42.53511        -0.33480
C         32.99068        44.65130        -0.17153
C         31.76606        43.94738        -0.27950
C         32.80119        46.06134         0.30045
C         31.72052        46.84078        -0.41081
C         31.71884        48.19285        -0.56274
C         34.27661        20.93874         0.69993
C         35.46288        23.10273         0.76753
C         34.28790        22.37898         0.72699
C         35.46959        24.51424         1.19663
C         34.15057        25.21243         1.49199
C         35.39462        27.44099         1.37603
C         34.11994        26.72779         1.77654
C         35.43968        28.89665         1.60641
C         34.14601        29.67488         1.69520
C         35.42442        31.87298         1.10076
C         34.18333        31.18409         1.52783
C         35.40513        33.22234         0.76969
C         34.14764        33.95949         0.69900
C         35.41144        36.06593         0.24696
C         34.16564        35.36734         0.48929
C         35.44751        37.46317         0.07359
C         34.27628        38.28247         0.39497
C         35.45555        40.30781        -0.46266
C         34.27880        39.69160        -0.00057
C         35.53869        41.81946        -0.66415
C         34.23613        42.56909        -0.45244
C         34.20479        43.98217        -0.34994
C         36.63804        25.35299         0.96176
C         37.76348        27.50587         0.62997
C         36.58462        26.75631         1.02650
C         37.83145        28.87615         0.66670
C         36.71817        29.63815         1.28855
C         37.92316        31.79574         0.53918
C         36.70493        31.13654         1.14256
C         37.79529        33.17947         0.06082
C         36.61433        33.90007         0.30580
C         37.76527        35.94602        -0.49658
C         36.59347        35.29854         0.01658
C         37.75519        37.34158        -0.72340
C         36.61783        38.11785        -0.43199
C         36.61096        39.53548        -0.63660
C         38.95547        29.58120         0.09528
C         40.10985        31.63248        -0.65181
C         39.01564        30.94961        -0.00083
C         40.08355        32.97590        -0.87844
C         38.93050        33.79530        -0.55079
C         38.91187        35.16352        -0.80921
O         34.84021        24.54617         2.58234
O         23.67768        50.94798        -1.70481
O         23.36244        41.26109        -2.91211
O         30.31192        20.43560        -1.38307
O         37.73384        31.73193         2.00072
O         17.76413        50.75871        -1.32424
O         20.24831        40.12722        -0.01313
O         17.86903        46.53673        -2.33890
O         28.20091        50.10589         1.59161
O         27.70778        22.85812         1.35789
O         26.86591        35.64781        -2.97753
O         17.12937        17.25201        -2.58125
O         33.28621        29.27681         2.76852
O         21.09469        42.39296        -2.95643
O         29.51235        31.26222        -1.72302
O         24.50431        30.95143         0.29808
O         22.79756        24.09429         1.39239
O         14.70135        44.50322        -1.45792
O         18.10712        36.63681        -2.75943
O         32.27534        40.28543         1.35431
O         23.14856        58.69953         0.60145
O         23.23818        43.82910         0.61089
O         31.79079        45.97704         1.41340
O         11.20666        31.41486        -1.42073
O         19.44845        30.52907        -2.73951
O         23.25638        12.72818         2.16849
O         33.63875        38.01969         1.69373
O         30.46147        31.54308         1.91541
O         28.77002        25.05008        -1.53684
O         15.88468        37.99815        -2.13101
O         23.74415         5.68955         0.00081
O         26.56878        31.14909        -2.65411
O         21.84480         9.67175        -0.60963
O         23.40595         7.70496         2.96686
O         20.48077        24.74554        -2.53872
O         11.23644        28.15014         1.21963
O         24.96354        20.55241         1.65764
O         14.74657        37.56480         1.44030
O          7.88041        32.62423         0.00852
O         27.05415        46.49158         1.50439
O         36.41021        29.24455         2.66070
O         24.66608        34.29895        -3.29100
O         21.50344        13.65809        -1.86169
O         33.48061        31.84880         2.62228
O         29.23368        49.06564         1.71718
O         12.05529        36.92575         2.91627
H         13.02767        37.02000         2.80261
O         27.84006         7.68217         1.17060
H         27.58200         7.84808         0.24090
O         30.13094        23.33477         1.74068
H         30.15761        22.45664         2.18904
O         22.40361        10.47747         2.93998
H         22.79547        11.30367         3.31536
O         26.00972        42.31461        -3.00213
H         25.30600        41.90323        -3.55184
O          9.07341        28.46313         2.12768
H          9.20658        29.32701         2.59076
O         33.96170        26.85127         3.23030
H         34.50717        26.13692         3.63426
O         19.65447        34.13826         0.64312
H         19.57642        33.26018         1.08964
O         26.99229        16.19160        -1.31786
H         27.87593        16.46034        -1.64513
O         27.49842        38.21607        -3.21867
H         27.45090        37.26593        -3.50521
O         18.36812        33.00612        -2.64972
H         18.24055        33.89637        -3.04147
O         25.85129        45.83095        -1.91472
H         25.83918        46.71113        -2.34513
O         28.44587        48.79160        -1.78635
H         27.74632        49.25208        -2.29520
O         31.27129        20.85468         2.12344
H         31.99832        21.15025         2.71372
O         12.61066        41.68682        -1.35700
H         13.27157        41.39028        -2.01879
O          9.12281        29.44261        -1.46092
H          9.63204        30.10932        -1.97618
O         17.53867        28.91008        -2.82134
H         17.96585        29.65127        -3.31703
O         22.90394        36.04768        -3.75106
H         23.36190        35.26701        -4.15267
O         10.91772        34.56557         2.94948
H         11.34568        35.36072         3.35653
O         17.55376        39.30448         0.77744
H         18.03340        40.09171         1.11372
O         28.02529        44.00712         1.80917
H         27.18647        44.35337         2.20113
O         21.28927         7.12922        -0.85638
H         21.51991         8.01740        -1.22517
O         22.56699        39.37148        -0.05536
H         21.75998        39.33866         0.51436
O         18.46791        22.82410        -3.25294
H         19.23953        23.34683        -3.56763
O          7.58878        27.28790        -0.97057
H          7.95900        27.97741        -1.56832
O         18.78762        31.71373         0.75086
H         18.63596        30.79270         1.09129
O         20.88875         8.26194         2.61050
H         21.51688         8.65078         3.26475
O         25.41465        44.63541         1.51667
H         24.47802        44.40693         1.74205
O          8.12548        30.67689         3.07284
H          7.48732        30.20830         3.65279
O         24.60632        29.50022        -3.05640
H         25.43640        29.97004        -3.32721
O         20.33136        55.08899        -0.78250
H         21.02274        54.70831        -1.36484
O         29.53155        22.70449        -1.83231
H         30.16880        22.05275        -2.20672
O         24.48612        25.93460         1.59032
H         24.12773        25.21422         2.15898
O         16.52738        50.12478        -1.64547
H         16.79020        49.24739        -2.03329
O         31.31745        26.62833         2.54153
H         32.14742        26.74763         3.07574
O         31.02379        18.06029        -1.16089
H         30.65369        18.67333        -1.83915
O         28.69868        40.66481        -2.82310
H         28.40493        39.85586        -3.31155
O         23.95108        14.30270        -1.81521
H         23.20556        14.14170        -2.43991
O         22.04435        46.96914        -2.40611
H         22.63881        47.72530        -2.60028
O         31.32251        24.54594        -1.50730
H         30.56168        24.41443        -2.12410
O         19.71866        16.50501         0.88188
H         19.01616        17.03210         1.31691
O         16.59869        47.17793        -2.47873
H         15.96989        46.42801        -2.63215
O         25.61815        16.39956         2.05612
H         24.77527        16.10752         2.46275
O         10.30948        36.31070        -0.26576
H         10.03905        35.50377        -0.75366
O         27.52789        29.15737         1.43530
H         28.11845        28.68284         2.05940
O         29.96333        36.18106         1.66879
H         30.67634        36.61352         2.18679
O         29.49766        46.74540         2.26661
H         28.62622        46.99801         2.64369
O         27.57962        12.09980         3.78804
H         27.50278        13.06765         3.93117
O         36.56988        42.34795         0.18014
H         36.32168        42.17526         1.11168
O         20.78649        16.11100        -2.57247
H         21.23363        15.33410        -2.97572
O         21.88282        38.47303        -3.49592
H         22.07043        37.62605        -3.97311
O         24.90587        58.34177         3.78023
H         24.32745        58.65824         4.50562
O         17.78892        29.21294         0.82031
H         17.04888        29.19676         1.46427
O         25.67563        59.66578         0.44859
H         24.78672        59.50520         0.05037
O         21.10039        22.26197         1.31606
H         21.36994        23.05064         1.84419
H          5.28528        31.14931         2.18561
H          5.46924        33.54085         2.68094
H          7.77349        26.70578         0.98875
H          6.41254        28.90011         1.40403
H          6.96522        35.55195         3.10522
H          8.08284        37.68870         2.67175
H          9.99524        22.54792        -0.51747
H          8.76454        24.67179        -0.27518
H          9.17128        39.86232         2.16872
H         10.36944        42.01612         1.95506
H         12.43791        18.26882        -0.90004
H         11.21416        20.41154        -0.75150
H         11.55888        44.11916         1.79172
H         12.67579        46.27175         1.60910
H         14.82123        13.96331        -0.70290
H         13.62289        16.14858        -0.91563
H         13.84113        48.43574         1.60390
H         15.07293        50.56463         1.81240
H         17.24888         9.72202        -0.20276
H         16.05549        11.82058        -0.53091
H         16.24444        52.75241         1.86661
H         17.44324        54.86375         2.06507
H         19.54388         5.45672         1.08188
H         18.42964         7.57583         0.13544
H         18.70867        56.91122         2.49697
H         19.94006        58.89590         3.04222
H         22.99178         2.14575         1.98795
H         20.83337         3.28989         1.64244
H         23.40393        62.13757         3.93455
H         21.27476        60.85225         3.91050
H         25.14803         3.32651         1.90093
H         26.47085         5.55903         1.69771
H         26.75427        59.05715         2.09471
H         25.52186        61.16395         3.13123
H         27.11047         7.90831         3.07293
H         28.79740         9.85569         2.35427
H         29.07703        55.13724         0.34304
H         27.88150        57.21395         1.02438
H         30.07155        12.11775         2.46545
H         31.32366        14.20886         2.13893
H         31.41808        50.81931        -0.92556
H         30.25776        53.05976        -0.37992
H         32.54292        16.31770         1.98990
H         33.93999        18.29112         1.36814
H         33.73242        46.59779         0.59070
H         32.64568        48.72254        -0.83427
H         35.24211        20.41227         0.74949
H         36.43184        22.58803         0.67414
H         35.87398        42.01512        -1.72090
H         35.15534        44.53487        -0.31546
H         37.55589        24.87312         0.59057
H         38.61405        26.93751         0.22383
H         38.65318        37.82727        -1.13220
H         37.54343        40.02833        -0.94655
H         39.77612        28.97639        -0.32033
H         40.97942        31.03626        -0.96553
H         40.94083        33.46705        -1.36159
H         39.79647        35.65325        -1.24201
