         404
 CSIRO Nanostructure Databank - Neutral Graphene Oxide Data Set
C          1.12404         3.50469        -0.21797
C         -0.06778         4.19137        -0.08562
C          1.11274         6.32938         0.09549
C         -0.07886         5.58969         0.06734
C          1.12402         7.77667         0.25006
C         -0.06649         8.52239         0.33532
C          1.15519        10.62943         0.52128
C         -0.04930         9.91015         0.44273
C          1.17268        12.07985         0.54125
C         -0.01170        12.83790         0.33099
C          1.22994        14.92903         0.56311
C          0.01722        14.21167         0.34929
C          1.24725        16.35079         0.59430
C          0.06984        17.13363         0.27958
C          1.17002        19.15396         1.20087
C          0.03491        18.46938         0.48244
C          1.20052        20.64535         0.98033
C          0.00575        21.36396         1.03779
C          1.18304        23.46917         0.69651
C         -0.00897        22.74980         0.88242
C          1.17056        24.91198         0.50315
C         -0.03466        25.62819         0.36806
C          1.15646        27.73626         0.07272
C         -0.04327        27.00054         0.15863
C          1.16204        29.16250        -0.19509
C         -0.03528        29.90028        -0.33570
C          1.19151        31.95097        -0.83646
C         -0.02230        31.25689        -0.61199
C          1.22277        33.40819        -1.00833
C          0.04997        34.18471        -0.76196
C          1.30120        36.25757        -0.99913
C          0.08587        35.55895        -0.75525
C          1.34958        37.67671        -1.00871
C          3.58389         3.52142        -0.33074
C          2.36343         4.20733        -0.19876
C          3.58889         6.34482        -0.00645
C          2.35837         5.63604        -0.03480
C          3.59950         7.76721         0.19960
C          2.36920         8.47265         0.32234
C          3.62372        10.56087         0.71380
C          2.39202         9.89486         0.51849
C          3.59475        11.99396         1.08121
C          2.38420        12.77485         0.76249
C          3.69623        14.89341         0.92840
C          2.43878        14.18883         0.77863
C          3.71313        16.31754         0.88401
C          2.47565        17.04534         0.81826
C          3.69348        19.17743         0.87876
C          2.47911        18.45805         0.92013
C          3.67467        20.61488         0.82372
C          2.42930        21.33727         0.82855
C          3.66454        23.47739         0.61453
C          2.42193        22.76104         0.70193
C          3.64689        24.92823         0.55357
C          2.40092        25.62830         0.44038
C          3.62774        27.76930         0.18559
C          2.39136        27.04330         0.23138
C          3.64727        29.15718        -0.17270
C          2.39995        29.84426        -0.37831
C          3.65949        31.83153        -1.18633
C          2.39253        31.21325        -0.76626
C          3.66957        33.31937        -1.53077
C          2.42649        34.07942        -1.28077
C          3.69512        36.20810        -1.55528
C          2.48596        35.50825        -1.26551
C          3.70203        37.59925        -1.60880
C          2.52414        38.33187        -1.31596
C          6.03959         3.51692        -0.44453
C          4.81679         4.21208        -0.32944
C          6.04702         6.35687        -0.20785
C          4.82046         5.64772        -0.17770
C          6.06584         7.78585         0.03079
C          4.83505         8.47035         0.26300
C          6.11708        10.54908         0.65657
C          4.85975         9.87181         0.55739
C          6.15902        11.92440         1.20045
C          4.89007        12.72423         1.30901
C          6.14951        14.89405         1.11616
C          4.92502        14.19397         1.09589
C          6.17850        16.31091         0.99053
C          4.94668        17.03283         0.91835
C          6.16476        19.19255         0.76652
C          4.93940        18.46766         0.84445
C          6.13888        20.61068         0.67578
C          4.89397        21.32720         0.71433
C          6.15517        23.47782         0.53874
C          4.87306        22.75596         0.61725
C          6.14269        24.97373         0.62582
C          4.83979        25.68072         0.63442
C          6.07649        27.87350         0.60530
C          4.83118        27.08539         0.48876
C          6.12065        29.21649         0.01192
C          4.89194        29.85364        -0.31836
C          6.13066        31.92205        -0.84848
C          4.92505        31.20251        -0.78834
C          6.13638        33.34072        -1.19471
C          4.95970        34.02238        -1.47285
C          6.20769        36.21257        -1.54045
C          4.95738        35.46032        -1.93072
C          6.20370        37.63242        -1.65001
C          4.93518        38.31387        -2.10724
C          8.50772         3.51872        -0.53551
C          7.26742         4.20755        -0.46597
C          8.49748         6.34411        -0.49586
C          7.26227         5.64425        -0.40221
C          8.47646         7.82851        -0.51256
C          7.27469         8.51029         0.00950
C          8.60658        10.62847         0.29203
C          7.32566         9.89942         0.32267
C          8.66614        11.99268         0.65237
C          7.46358        12.65979         1.20604
C          8.71636        14.89836         1.12253
C          7.42744        14.16043         1.32945
C          8.67243        16.35199         0.86096
C          7.42985        17.03809         0.91117
C          8.65124        19.14965         0.68842
C          7.41905        18.46083         0.79447
C          8.64109        20.60722         0.47706
C          7.37598        21.35731         0.65801
C          8.68112        23.40759         1.24904
C          7.40430        22.72865         0.76247
C          8.65464        24.95178         1.26066
C          7.36983        25.69195         1.09944
C          8.65246        27.82424         0.47648
C          7.39720        27.18040         0.88349
C          8.61581        29.18927         0.09875
C          7.35718        29.88074        -0.12329
C          8.58727        31.97187        -0.61578
C          7.36386        31.25747        -0.53326
C          8.57051        33.39168        -0.82492
C          7.39075        34.07132        -1.09675
C          8.59886        36.26770        -1.04573
C          7.38409        35.52565        -1.22088
C          8.59525        37.69679        -1.16072
C          7.36363        38.35858        -1.44262
C         10.97587         3.49483        -0.57099
C          9.72553         4.20767        -0.51788
C         10.97249         6.39284        -0.43402
C          9.70047         5.64640        -0.50634
C         11.04274         7.82510        -0.96441
C          9.75102         8.60082        -0.67124
C         11.06187        10.62672        -0.04006
C          9.81183         9.97533        -0.11968
C         11.10129        12.02033         0.26441
C          9.89315        12.72462         0.56597
C         11.14855        14.84809         0.62863
C          9.93815        14.13943         0.76446
C         11.14685        16.30906         0.59032
C          9.89119        17.03634         0.67741
C         11.13603        19.19146         0.58915
C          9.88374        18.46168         0.61551
C         11.16691        20.58053         0.72744
C          9.94952        21.35886         0.43455
C         11.17187        23.50321         1.18397
C          9.94110        22.89457         0.51797
C         11.18620        25.00720         1.25655
C          9.90858        25.72427         0.98215
C         11.14831        27.72216         0.22476
C          9.87268        27.05081         0.58519
C         11.11150        29.17579        -0.16074
C          9.82926        29.91497        -0.15713
C         11.09241        31.96561        -0.87090
C          9.83064        31.27049        -0.47396
C         11.08398        33.46254        -1.02076
C          9.83742        34.13710        -0.49206
C         11.03909        36.29043        -0.75326
C          9.82559        35.59908        -0.81686
C         11.02520        37.72907        -0.79241
C          9.80041        38.40520        -0.99076
C         13.44529         3.42919        -0.67760
C         12.20656         4.13331        -0.59892
C         13.46717         6.34278        -0.90927
C         12.24165         5.61096        -0.47802
C         13.52350         7.79493        -0.61693
C         12.31258         8.52119        -0.51571
C         13.56497        10.58336        -0.10782
C         12.31285         9.90226        -0.23743
C         13.58583        11.99028         0.10540
C         12.34721        12.71909         0.27403
C         13.64768        14.82597         0.48272
C         12.36148        14.11460         0.47599
C         13.62424        16.32272         0.33209
C         12.31985        17.01624         0.34332
C         13.55199        19.14320         0.09340
C         12.36384        18.45730         0.35902
C         13.70102        20.52912         0.51701
C         12.43453        21.25602         0.98770
C         13.76171        23.48166         0.88852
C         12.47713        22.75202         1.16197
C         13.72458        24.94481         0.74731
C         12.52717        25.75033         1.26129
C         13.61234        27.74254         0.25132
C         12.44595        27.09595         0.57119
C         13.65154        29.21923         0.07307
C         12.37303        29.97809        -0.05787
C         13.59430        32.01532        -0.82514
C         12.41490        31.34680        -0.62934
C         13.65060        33.48615        -1.24211
C         12.35366        34.20339        -0.92234
C         13.52913        36.31822        -0.51836
C         12.31159        35.57583        -0.70894
C         13.45279        37.74255        -0.35599
C         12.23140        38.42768        -0.56628
C         15.91530         3.38522        -0.69609
C         14.68320         4.07749        -0.74490
C         16.00409         6.25680        -0.74304
C         14.73730         5.54411        -0.96121
C         16.01319         7.66501        -0.56154
C         14.77793         8.42376        -0.47726
C         16.03772        10.48695        -0.05865
C         14.80483         9.84472        -0.24548
C         16.07863        11.93118         0.13982
C         14.82612        12.69483         0.10759
C         16.05189        14.83253        -0.23853
C         14.87787        14.10133         0.11509
C         16.07034        16.24031        -0.41415
C         14.78445        16.97275        -0.34663
C         16.03033        19.22135        -0.53903
C         14.74488        18.48292        -0.46282
C         16.08997        20.58511        -0.33076
C         14.78800        21.35076        -0.15842
C         16.12440        23.44467         0.13709
C         14.94181        22.75114         0.38011
C         16.14780        24.88945         0.21218
C         14.90300        25.60010         0.44906
C         16.01237        27.68508        -0.18711
C         14.87393        27.03484         0.24369
C         15.89401        28.98716        -0.77181
C         14.84733        29.83447        -0.52838
C         16.22080        32.07496        -0.75727
C         14.88484        31.27028        -0.87380
C         16.07427        33.53310        -0.47738
C         14.88454        34.20398        -0.66499
C         15.92483        36.39553        -0.05299
C         14.79059        35.64798        -0.42751
C         15.81245        37.78735         0.29244
C         14.59889        38.45407         0.06187
C         18.38282         3.34213        -0.74378
C         17.14837         4.06177        -0.72519
C         18.45510         6.18046        -0.65509
C         17.19639         5.50700        -0.69179
C         18.49507         7.60685        -0.55146
C         17.27145         8.30836        -0.38655
C         18.64436        10.47463        -0.38047
C         17.28824         9.72903        -0.05732
C         18.50955        11.88856        -0.80914
C         17.36988        12.67961        -0.27676
C         18.53963        14.85363        -1.11686
C         17.20536        14.07658        -0.72557
C         18.51335        16.29000        -0.83998
C         17.26011        16.95235        -0.71504
C         18.59945        19.17653        -0.69036
C         17.23931        18.43016        -0.85187
C         18.58155        20.61156        -0.36748
C         17.34242        21.32732        -0.35512
C         18.58576        23.49667        -0.30843
C         17.33351        22.73595        -0.20352
C         18.60694        24.94102        -0.01410
C         17.35674        25.59752         0.08505
C         18.62587        27.83183         0.19300
C         17.32807        27.07825         0.14038
C         18.75246        29.30437        -0.01672
C         17.75868        30.07862        -0.64911
C         18.54921        32.11895         0.33809
C         17.50550        31.42574        -0.36487
C         18.48390        33.53987         0.47021
C         17.33343        34.26053        -0.15185
C         18.37409        36.50691         0.67460
C         17.25996        35.77132        -0.01686
C         18.09709        37.84172         1.24350
C         16.89084        38.47726         0.91827
C         19.59101         4.00004        -0.77606
C         20.89806         6.11771        -0.82454
C         19.65782         5.42522        -0.74755
C         20.94106         7.49377        -0.84631
C         19.76272         8.29082        -0.70790
C         20.96937        10.45496        -1.21158
C         19.80322         9.70726        -0.83015
C         21.00674        11.82101        -1.30182
C         19.78131        12.63524        -1.27405
C         20.95041        14.79355        -0.72070
C         19.79537        14.09868        -1.06283
C         20.94056        16.18336        -0.52740
C         19.75860        16.95342        -0.59017
C         20.89139        19.04520         0.18479
C         19.78332        18.37902        -0.35060
C         20.92714        20.44069         0.28840
C         19.80825        21.23564        -0.02743
C         21.04838        23.47713         0.37177
C         19.91145        22.70655        -0.14508
C         21.02959        24.83575         0.42262
C         19.84404        25.63252         0.17654
C         21.01775        27.80822         0.70871
C         19.88346        27.05573         0.30681
C         20.96167        29.17438         0.96333
C         19.82188        29.96944         0.60962
C         20.76480        32.13931         1.37853
C         19.72447        31.40700         0.76180
C         20.66032        33.50367         1.56316
C         19.53542        34.22723         1.09999
C         20.27570        36.33899         2.35798
C         19.53774        35.70983         1.25720
C         20.09523        37.66939         2.65826
C         19.05085        38.43442         2.08954
O          9.30042        20.94175        -0.82062
O         10.98134        24.16653         2.45537
O         11.72566         6.13994         0.79892
O         13.90939        15.72587         1.63701
O          6.67376        27.86808         1.96072
O         17.56515        14.37979        -2.08589
O         14.01427         5.95148        -2.19651
O         16.95764        29.40249        -1.57892
O         17.80345        27.60230         1.44800
O         18.23959        10.15054         0.96919
O         13.37464        20.64920         1.92604
O         14.44420        17.61169        -1.61494
O         17.06156        12.46190         1.11057
O         10.95239        32.61297        -2.19006
O         19.43330        23.15305        -1.45120
O         13.05622        29.91546         1.23944
O         18.76255        12.11737        -2.20975
O          8.83532         8.46400        -1.82304
O         15.67710        31.65057        -2.04944
O          6.33311        24.33458        -0.69112
O          4.08274        12.29121         2.45122
O          6.97288        11.99900         2.42438
O         11.16181        28.14825        -1.20835
O          3.60635        32.30010        -2.58406
O          8.20341        14.60745         2.48722
O         13.32633        23.11098         2.28958
O         17.69879        35.15475        -1.26490
O         17.99989        18.89005        -2.00037
O          7.87255        25.37855         2.44119
O         19.64724        36.43358        -0.02099
O         13.79437        33.53651        -2.68762
H         14.55205        32.94432        -2.91534
O          4.95492        35.41810        -3.40930
H          5.65035        34.78597        -3.69182
O          9.98510        34.04404         0.96996
H          9.23512        34.52567         1.37876
O          8.78177        22.94599         2.61550
H          8.45405        23.66957         3.19790
O         11.17908         7.70844        -2.40287
H         10.28510         7.87180        -2.78975
O          4.91018        38.29117        -3.54904
H          4.88284        37.34111        -3.81882
O         14.24083        21.53083        -1.51741
H         14.96944        21.83168        -2.10166
O          9.94105        23.41527        -0.82318
H          9.48023        22.74983        -1.39027
O          0.91244        18.97710         2.64249
H          0.91668        18.01238         2.82120
O         12.83450        26.03364         2.65276
H         12.70840        25.18307         3.13686
H          1.12947         2.41216        -0.33966
H         -1.02169         3.64587        -0.10037
H         -1.04898         6.09419         0.16851
H         -1.04012         8.01673         0.29155
H         -1.01107        10.43872         0.47480
H         -0.96918        12.33085         0.15484
H         -0.92201        14.75944         0.19945
H         -0.79916        16.63719        -0.17417
H         -0.86511        19.04093         0.21475
H         -0.94263        20.83960         1.21691
H         -0.97416        23.27063         0.92601
H         -0.99829        25.10416         0.41154
H         -1.01204        27.50520         0.04914
H         -1.00622        29.40439        -0.20606
H         -0.98319        31.78231        -0.68688
H         -0.90328        33.68239        -0.55193
H         -0.83038        36.13372        -0.55743
H          0.43313        38.24555        -0.79541
H          3.58005         2.42708        -0.44310
H          2.55343        39.43040        -1.35537
H          6.03265         2.41911        -0.51208
H          4.92869        39.38660        -1.79051
H          8.50580         2.41953        -0.57924
H          7.35205        39.45425        -1.54010
H         10.93905         2.39634        -0.62732
H          9.79293        39.50431        -1.03188
H         13.42300         2.32910        -0.64468
H         12.21825        39.52582        -0.50708
H         15.90943         2.28674        -0.62897
H         14.52547        39.53296         0.25940
H         18.35258         2.24298        -0.75830
H         16.72440        39.51250         1.25114
H         20.52917         3.42794        -0.82156
H         21.82951         5.53803        -0.89916
H         21.91645         7.99067        -0.93847
H         21.90865         9.90518        -1.36765
H         21.96799        12.32056        -1.48714
H         21.90767        14.25880        -0.64598
H         21.89818        16.67984        -0.32374
H         21.78788        18.47938         0.47255
H         21.86220        20.91970         0.60832
H         21.94517        22.93912         0.71096
H         21.93923        25.35228         0.75902
H         21.97019        27.29321         0.89895
H         21.85784        29.66305         1.37005
H         21.67266        31.62214         1.71617
H         21.49284        34.04149         2.03544
H         20.97614        35.74064         2.95662
H         20.71821        38.13218         3.43715
H         18.88743        39.46404         2.43825
