         404
 CSIRO Nanostructure Databank - Neutral Graphene Oxide Data Set
C          1.40744         3.65026        -2.34182
C          0.19523         4.29875        -2.24593
C          1.32320         6.42733        -1.84330
C          0.15352         5.68733        -1.99757
C          1.27642         7.93425        -1.67211
C          0.06026         8.46457        -0.95368
C          1.21047        10.54287        -0.33837
C          0.03528         9.71606        -0.42072
C          1.17787        11.93258        -0.08311
C         -0.05306        12.64990         0.00146
C          1.10682        14.77244         0.37511
C         -0.08114        14.01375         0.19195
C          1.04967        16.21591         0.42749
C         -0.06748        16.96528         0.07707
C          1.09134        19.13312         0.30886
C         -0.04439        18.38521         0.03580
C          1.13652        20.61824        -0.02772
C         -0.12808        21.36342         0.30968
C          1.12124        23.46317         0.31698
C         -0.10526        22.72196         0.40235
C          1.11253        24.91414         0.10458
C         -0.11746        25.71882         0.15302
C          1.11957        27.83968         0.38531
C         -0.08130        27.08371         0.15983
C          1.16273        29.25165         0.42821
C         -0.03027        30.02039         0.25486
C          1.22196        32.11558         0.27031
C         -0.00456        31.38713         0.19824
C          1.23350        33.54924         0.13125
C          0.05214        34.28048        -0.16075
C          1.29744        36.36107        -0.34501
C          0.08034        35.64299        -0.39376
C          1.35171        37.74525        -0.69822
C          3.86390         3.71036        -2.31005
C          2.62671         4.37700        -2.20937
C          3.83179         6.52397        -1.87570
C          2.58968         5.78985        -1.96808
C          3.83846         7.91322        -1.53669
C          2.55545         8.46261        -1.04691
C          3.73214        10.65386        -0.52699
C          2.50384         9.85184        -0.44389
C          3.66928        12.03829        -0.16151
C          2.40625        12.67228         0.09140
C          3.59312        14.76545         0.62982
C          2.36070        14.06296         0.40085
C          3.52467        16.19097         1.04188
C          2.24820        16.96442         0.85813
C          3.48283        19.13943         0.85915
C          2.30010        18.44572         0.67460
C          3.47893        20.60742         1.00200
C          2.32571        21.36296         0.54367
C          3.61104        23.50308         0.74388
C          2.35292        22.76987         0.53082
C          3.64211        24.91647         0.73096
C          2.42445        25.65875         0.36208
C          3.63906        27.83217         1.00054
C          2.31754        27.08429         0.75663
C          3.63765        29.27839         0.76368
C          2.41629        29.96323         0.57122
C          3.68080        32.10338         0.53976
C          2.43237        31.39632         0.45122
C          3.66466        33.52631         0.50869
C          2.47071        34.25193         0.26592
C          3.70859        36.40144         0.04792
C          2.49676        35.67881         0.03019
C          3.76735        37.75612        -0.39312
C          2.54627        38.41648        -0.74893
C          6.30977         3.70662        -2.18178
C          5.08342         4.40781        -2.17851
C          6.30488         6.55145        -1.86626
C          5.06724         5.83741        -1.99315
C          6.28837         7.99279        -1.68924
C          5.03499         8.67393        -1.48112
C          5.92802        11.05210        -1.33932
C          4.89531        10.10390        -1.10500
C          6.06433        12.26755        -0.66306
C          4.87232        12.81172        -0.08927
C          6.12887        14.96101         0.38209
C          4.82671        14.16005         0.38650
C          6.02304        16.16176         1.39959
C          4.81093        16.94996         0.92956
C          6.04534        19.19489         1.06885
C          4.78184        18.44755         0.88671
C          6.07889        20.59923         1.05022
C          4.81390        21.35353         1.16210
C          6.07760        23.48900         0.94937
C          4.83509        22.80445         0.92169
C          6.09718        24.91380         0.93100
C          4.86472        25.63982         0.89175
C          6.11095        27.79205         0.95320
C          4.89462        27.07294         0.90898
C          6.09469        29.22466         0.95439
C          4.89320        29.96331         0.77532
C          6.16709        32.11584         0.74390
C          4.91563        31.39979         0.69654
C          6.19517        33.53243         0.71413
C          4.91318        34.24271         0.78001
C          6.22156        36.39505         0.27364
C          4.93017        35.76969         0.54345
C          6.22111        37.75277        -0.15192
C          5.00892        38.42279        -0.43939
C          8.75513         3.65746        -1.89299
C          7.53346         4.38612        -2.00284
C          8.84733         6.51106        -1.88694
C          7.51756         5.81235        -1.88506
C          8.74154         7.85404        -1.23832
C          7.58530         8.60144        -1.43012
C          8.75685        10.71934        -0.76356
C          7.77180        10.03133        -1.42161
C          8.75332        12.18856        -0.60422
C          7.39023        12.94585        -0.54226
C          8.50813        14.37018         1.11181
C          7.37117        14.07098         0.42200
C          8.48952        16.43519         1.76732
C          7.24464        17.05646         1.44939
C          8.54482        19.10367         1.06284
C          7.23667        18.42204         1.18724
C          8.56778        20.59021         0.92556
C          7.29557        21.33494         1.00390
C          8.57822        23.45062         1.02700
C          7.32137        22.74666         1.01485
C          8.57440        24.89803         0.98188
C          7.34205        25.62178         0.95067
C          8.59803        27.73120         0.98327
C          7.35997        27.05141         0.97604
C          8.64727        29.18473         1.18112
C          7.34331        29.96864         1.19433
C          8.62428        32.11501         0.97762
C          7.40515        31.42434         0.92575
C          8.66327        33.53876         0.78492
C          7.42110        34.24969         0.68752
C          8.67350        36.37631         0.36006
C          7.42826        35.68105         0.47036
C          8.65477        37.78562         0.07612
C          7.47191        38.42999        -0.21850
C         11.17293         3.54254        -1.31145
C          9.98482         4.28052        -1.54451
C         11.19783         6.35182        -0.99512
C         10.01596         5.70075        -1.39876
C         11.20346         7.75679        -0.70501
C          9.91132         8.44791        -0.60270
C         11.16751        10.65160        -0.14884
C          9.88862         9.94378        -0.23165
C         11.18033        12.04306         0.07554
C          9.94694        12.75414         0.08597
C         11.02950        14.68780         1.22910
C          9.86963        13.97230         0.79547
C         10.97839        16.10975         1.74261
C          9.74691        16.93572         1.54011
C         11.05174        19.16877         1.74555
C          9.76931        18.41148         1.58597
C         11.01486        20.61335         1.40058
C          9.84001        21.30168         1.17207
C         11.06128        23.43131         1.08782
C          9.81056        22.74177         1.09211
C         11.05339        24.89249         1.17123
C          9.79434        25.61533         0.99676
C         11.07858        27.74913         0.76291
C          9.82800        27.03056         0.93321
C         11.07852        29.19858         0.70338
C          9.89525        29.90083         0.90279
C         11.22806        32.08426         0.98941
C          9.89930        31.35837         1.12835
C         11.25664        33.61572         0.98139
C          9.89802        34.26046         0.69211
C         11.19343        36.36748         0.40255
C          9.89247        35.64789         0.50366
C         11.19232        37.86025         0.14152
C          9.89563        38.64404         0.07658
C         13.58982         3.45390        -0.77884
C         12.39490         4.18343        -0.98599
C         13.62652         6.30048        -0.55989
C         12.41832         5.61778        -0.83992
C         13.63399         7.73424        -0.42021
C         12.39936         8.43858        -0.46082
C         13.70551        10.65519        -0.08963
C         12.40114         9.91766        -0.38259
C         13.62569        12.02884         0.47447
C         12.38587        12.72616         0.49408
C         13.54183        14.72854         1.32957
C         12.31282        14.07125         1.00528
C         13.62066        16.15439         1.87910
C         12.27844        16.89859         1.88972
C         13.47841        19.01919         1.28165
C         12.31384        18.38324         1.66630
C         13.55713        20.51032         1.31761
C         12.29081        21.33061         1.43694
C         13.52370        23.41181         0.75140
C         12.28772        22.76247         1.09686
C         13.53430        24.83703         0.50255
C         12.36543        25.62836         0.92168
C         13.48142        27.72266         0.18153
C         12.28444        27.05728         0.58820
C         13.48760        29.14846         0.09511
C         12.32055        29.90104         0.43780
C         13.52691        31.99025        -0.05134
C         12.37490        31.31481         0.44900
C         13.51921        33.43325        -0.20416
C         12.37913        34.19612         0.14045
C         13.50300        36.25799        -0.57808
C         12.37933        35.59305        -0.03636
C         13.48146        37.69188        -0.82067
C         12.33920        38.44023        -0.54632
C         16.01885         3.39184        -0.26757
C         14.80467         4.10810        -0.46759
C         16.05757         6.19718        -0.11750
C         14.83307         5.54072        -0.38939
C         16.11221         7.67067        -0.21415
C         14.85561         8.44379        -0.17680
C         16.12228        10.47231         0.48891
C         14.90113         9.81729         0.10082
C         16.05782        11.86446         1.02513
C         14.79811        12.65028         0.93901
C         16.01561        14.78719         1.57718
C         14.75753        14.02621         1.29904
C         16.02454        16.21780         1.21090
C         14.75934        16.92153         1.22518
C         15.84281        18.98873         0.31345
C         14.69626        18.27782         1.01065
C         15.92477        20.47619         0.62670
C         14.76882        21.21795         0.83252
C         15.83886        23.26623        -0.10171
C         14.70058        22.64075         0.59028
C         15.81330        24.76882        -0.46311
C         14.63079        25.52369        -0.02444
C         15.83942        27.63725        -0.54159
C         14.65616        26.96436        -0.10670
C         15.81304        29.04489        -0.68904
C         14.67324        29.81708        -0.32284
C         15.85924        31.93017        -0.89726
C         14.67659        31.24843        -0.43838
C         15.85489        33.35337        -1.04908
C         14.67189        34.09409        -0.73178
C         15.81694        36.16899        -1.45162
C         14.66269        35.50857        -0.92298
C         15.78668        37.59191        -1.68622
C         14.61604        38.31839        -1.39287
C         18.46188         3.31241         0.17013
C         17.20741         4.04561         0.06770
C         18.42845         6.15919         0.68279
C         17.21909         5.47184         0.17634
C         18.58052         7.61468         0.56448
C         17.39909         8.38111         0.10783
C         18.62775        10.48127         0.60122
C         17.32222         9.79169         0.50408
C         18.63430        11.96412         0.82384
C         17.35047        12.58640         1.28181
C         18.57233        14.82769         1.19503
C         17.35666        14.06739         1.50543
C         18.50810        16.21157         1.09744
C         17.22192        16.87897         0.98922
C         18.50200        19.01396         0.42508
C         17.19510        18.26179         0.45544
C         18.48915        20.48878         0.36704
C         17.20558        21.18241         0.52318
C         18.40058        23.24311        -0.44138
C         17.16835        22.65802         0.14348
C         18.34864        24.75054        -0.79748
C         17.08300        25.48963        -0.63390
C         18.32060        27.56716        -0.97571
C         17.07919        26.88446        -0.72371
C         18.29127        28.95737        -1.42970
C         16.95117        29.74004        -1.29597
C         18.21703        31.86005        -1.64916
C         17.01870        31.20244        -1.25318
C         18.20963        33.28216        -1.81986
C         17.01228        34.01615        -1.54359
C         18.15183        36.10760        -2.24857
C         16.99164        35.43569        -1.74783
C         18.10887        37.52188        -2.48276
C         16.92594        38.23880        -2.20798
C         19.64305         3.90942         0.46009
C         20.96664         6.07724         0.87778
C         19.70909         5.32454         0.87177
C         20.97791         7.43391         0.99383
C         19.78198         8.24454         0.86473
C         20.99604        10.42872         1.18895
C         19.86300         9.71374         0.87670
C         21.02911        11.87073         1.25384
C         19.90641        12.64147         1.15351
C         21.01246        14.93176         1.56985
C         19.90357        14.14374         0.92023
C         20.94602        16.27975         1.56906
C         19.74832        16.98576         1.12363
C         20.93856        19.16473         0.87430
C         19.74982        18.35258         0.87389
C         20.91749        20.48669         0.52823
C         19.67938        21.20413         0.29933
C         20.83005        23.38752        -0.17831
C         19.68175        22.62214        -0.05358
C         20.79482        24.77369        -0.47543
C         19.62029        25.48165        -0.69071
C         20.76080        27.70139        -0.95201
C         19.57227        26.92391        -0.85102
C         20.73184        29.06511        -1.21099
C         19.52407        29.73775        -1.48030
C         20.61088        31.84867        -2.18299
C         19.45102        31.13661        -1.79360
C         20.57158        33.20678        -2.43959
C         19.38680        33.95674        -2.25906
C         20.47347        36.08695        -3.00103
C         19.35459        35.38780        -2.50725
C         20.42125        37.46755        -3.23822
C         19.26248        38.18361        -2.98509
O         11.53749        16.41980         3.06934
O         18.67615        11.43957        -0.54304
O         15.56071        23.70883        -1.45453
O         16.69159        11.87846         2.37041
O          6.90834        10.72796        -2.27652
O         11.89087        25.36663         2.28404
O         17.38921        29.17484        -2.56874
O         17.33220        22.28772         1.53023
O         13.12071        21.02275         2.62237
O         18.31414        23.68317        -1.81360
O          9.62790         8.93318         0.78386
O         10.74867        31.64860         2.30618
O          8.37908        15.13774         2.27475
O          8.01334        29.60537         2.45059
O          8.25254        13.02167        -1.71143
O          4.00300        21.00330         2.33231
O         16.74812        14.45529         2.78601
O          8.69824        19.70743        -0.26910
O          2.55127         8.62720         0.39805
O         18.83479         5.64511         2.00013
O         10.19187        18.88893         2.91444
O         11.47332        37.31900         1.48275
O          4.93571        17.59331        -0.35482
O         17.02437         8.11628        -1.29697
O          4.81758        35.19455         1.88764
O         17.95158        18.36700        -0.80984
O         13.19500        10.55628        -1.46052
O          2.77914        27.36802         2.10861
O          2.00286        25.37011        -1.00329
O          2.71393        16.51555         2.19979
O          5.72596        15.64310         2.70145
H          6.55354        15.25227         3.06380
O          9.16609         6.79597        -3.31541
H          8.39209         7.26288        -3.69825
O          1.26592        20.65505        -1.50113
H          1.27539        21.59956        -1.76759
O         14.04483        16.03124         3.26157
H         13.22859        15.90784         3.79996
O         15.48167        18.93797        -1.09992
H         16.32738        18.86383        -1.60496
O         20.12626        14.25279        -0.52863
H         20.09888        15.20548        -0.76209
O         11.59673        34.03905         2.33051
H         11.17513        33.39201         2.94373
O          9.89443        39.49340        -1.08241
H          9.76003        38.93831        -1.87744
O          1.26424         8.50301        -3.02348
H          0.50004         8.12122        -3.50420
O          6.23779        15.57026        -0.92621
H          6.38544        14.86679        -1.59303
H          1.44995         2.56746        -2.52702
H         -0.74522         3.74153        -2.35613
H         -0.82792         6.17666        -1.92665
H         -0.86887         7.87669        -0.96174
H         -0.91630        10.10361        -0.02684
H         -1.00207        12.11106        -0.12292
H         -1.05463        14.52241         0.21396
H         -0.99225        16.46469        -0.24279
H         -0.95537        18.89286        -0.31128
H         -1.08652        20.82790         0.35642
H         -1.05137        23.26790         0.52734
H         -1.09072        25.21184         0.10493
H         -1.03566        27.62204         0.07774
H         -0.99943        29.51018         0.18417
H         -0.95572        31.92289         0.08778
H         -0.91135        33.76097        -0.24025
H         -0.84667        36.17440        -0.65297
H          0.41599        38.25686        -0.96695
H          3.87986         2.62317        -2.47644
H          2.58312        39.47054        -1.05910
H          6.30324         2.61106        -2.28027
H          5.04210        39.48133        -0.73512
H          8.72408         2.56309        -2.00242
H          7.49266        39.49731        -0.48222
H         11.15408         2.44714        -1.41428
H          9.85516        39.32869         0.96425
H         13.57328         2.35679        -0.85959
H         12.27932        39.48854        -0.87307
H         16.01524         2.29671        -0.37436
H         14.59160        39.40226        -1.57775
H         18.44103         2.24127        -0.08169
H         16.89501        39.32335        -2.38845
H         20.58075         3.33506         0.41705
H         21.91317         5.52242         0.79504
H         21.94778         7.94787         1.05064
H         21.94076         9.90308         1.38792
H         22.01052        12.34390         1.40669
H         21.91690        14.41713         1.92511
H         21.79287        16.86854         1.95009
H         21.90365        18.69451         1.10824
H         21.86657        21.03782         0.49205
H         21.81233        22.94579         0.03794
H         21.75297        25.31053        -0.45264
H         21.73628        27.21764        -0.81282
H         21.68152        29.61717        -1.23335
H         21.55742        31.30921        -2.32219
H         21.49319        33.70276        -2.77072
H         21.41050        35.55657        -3.21529
H         21.31146        37.98159        -3.62677
H         19.22376        39.26705        -3.16651
