         314
 CSIRO Nanostructure Databank - Neutral Graphene Oxide Data Set
C         30.39061        57.16431         0.27455
C         30.23576        58.66062         0.22701
C         29.36677        59.05327        -0.93552
C         30.63513        61.11040        -1.32240
C         29.55139        60.23631        -1.59936
C         32.70198        52.90571         1.02091
C         32.80596        54.31041         0.67631
C         31.61763        55.05687         0.59227
C         32.85276        57.18242         0.51232
C         31.59308        56.47748         0.46031
C         32.86117        58.66218         0.46042
C         31.57094        59.40778         0.22738
C         32.91133        61.40316        -0.44797
C         31.69390        60.70473        -0.48801
C         35.32746        48.66758         1.15456
C         35.29043        50.08480         1.12498
C         33.99149        50.68115         1.24143
C         35.52701        53.02810         0.59340
C         33.69274        51.96682         0.73736
C         35.32917        54.38342         0.80451
C         34.06606        55.03069         0.59868
C         35.32904        57.20582         0.42383
C         34.04292        56.46850         0.55536
C         35.33899        58.68273         0.37553
C         34.13235        59.36993         0.20855
C         35.38206        61.44126        -0.12873
C         34.13480        60.77140        -0.05932
C         37.75718        44.40677         0.46729
C         37.75886        45.80215         0.63644
C         36.54738        46.53579         0.87705
C         37.79296        48.64898         1.25271
C         36.52062        47.91926         1.07461
C         37.79344        50.13271         1.22684
C         36.55467        50.82467         1.09401
C         37.82734        52.94673         1.41529
C         36.64189        52.26029         1.07209
C         37.81177        54.41236         1.55882
C         36.51215        55.13451         1.28595
C         37.84925        57.26383         1.03340
C         36.61472        56.51797         0.77334
C         37.78481        58.71539         0.93222
C         36.55972        59.38659         0.45801
C         37.86891        61.44899         0.03527
C         36.58558        60.77663         0.16193
C         40.25879        40.16863         0.39283
C         40.21165        41.57504         0.21188
C         38.99438        42.28375         0.28244
C         40.18621        44.41947         0.00437
C         38.96447        43.69785         0.23424
C         40.19680        45.84271         0.15716
C         39.00837        46.49387         0.53774
C         40.29383        48.68432         0.66190
C         39.06250        47.90181         0.95278
C         40.29113        50.12419         1.03320
C         39.01483        50.81560         1.34301
C         40.29365        52.94122         1.60900
C         39.07726        52.24722         1.48815
C         40.35047        54.44441         1.81322
C         39.07076        55.16825         1.46089
C         40.32774        57.28083         1.02137
C         39.06417        56.56629         1.25318
C         40.34177        58.64398         0.74849
C         39.11999        59.47282         0.83687
C         40.35962        61.59745         0.05385
C         39.06549        60.83332         0.24868
C         42.71451        35.88065         0.49103
C         42.66734        37.28077         0.24226
C         41.47204        38.02017         0.39405
C         42.68281        40.10263        -0.09056
C         41.46138        39.42405         0.24157
C         42.74811        41.59709         0.12159
C         41.42557        42.30312        -0.04530
C         42.62726        44.40463        -0.59838
C         41.39802        43.68336        -0.19462
C         42.64317        45.93324        -0.44215
C         41.44773        46.58637         0.10185
C         42.79598        48.62594         0.45898
C         41.54902        47.91875         0.47998
C         42.84874        49.99144         1.05831
C         41.59281        50.72469         1.46698
C         42.79457        52.92098         1.23337
C         41.60635        52.22374         1.85852
C         42.70216        54.26435         0.83808
C         41.51897        55.05690         1.06574
C         42.62079        57.01784         0.11347
C         41.51031        56.44401         0.78263
C         42.76129        58.46990        -0.05084
C         41.57742        59.34536         0.33929
C         42.62840        61.20691        -0.90945
C         41.54092        60.70345        -0.25812
C         45.19167        33.08945         0.81883
C         43.97490        33.76624         0.81286
C         45.13514        35.79143         0.06915
C         43.92551        35.14279         0.45679
C         45.07320        37.17480        -0.39846
C         43.84667        37.96357        -0.19740
C         45.07723        40.05828        -0.91495
C         43.83928        39.36624        -0.37178
C         45.07162        41.55795        -0.75660
C         43.93481        42.28149        -0.52511
C         45.07627        44.47678        -0.94852
C         43.92150        43.72333        -0.67089
C         45.09777        45.90172        -0.73188
C         43.94670        46.60285        -0.35605
C         45.24663        48.68731         0.11563
C         43.97827        47.98092         0.07401
C         45.26221        50.07785         0.56340
C         44.11848        50.74269         0.94644
C         45.24372        52.93420         0.61448
C         44.13783        52.22290         1.35997
C         45.06604        54.18210         0.01239
C         43.81639        54.87477         0.15613
C         44.66780        56.72863        -1.22723
C         43.69948        56.20167        -0.31268
C         44.53981        58.07782        -1.67306
C         43.72774        58.99739        -1.03262
C         44.98602        61.09723        -1.60463
C         43.81821        60.43252        -1.23781
C         46.38568        33.75144         0.52044
C         47.61991        35.84581         0.01570
C         46.38499        35.12281         0.15800
C         47.65562        37.22344        -0.17609
C         46.40372        37.92449        -0.51753
C         47.62449        40.17455        -0.20145
C         46.34477        39.40500        -0.35290
C         47.57225        41.58959        -0.69493
C         46.31766        42.23032        -1.18706
C         47.64865        44.48014        -1.35080
C         46.31706        43.75419        -1.32697
C         47.64837        45.97972        -1.22660
C         46.36173        46.67931        -0.87722
C         47.69819        48.71958        -0.21889
C         46.41315        48.04562        -0.28644
C         47.77060        50.06330         0.15599
C         46.57328        50.77043         0.58057
C         47.77455        53.15380         0.26357
C         46.55561        52.29367         0.59509
C         47.50878        54.20060        -0.87702
C         46.11500        54.80361        -0.75990
C         47.77485        57.08014        -2.23392
C         45.80982        55.93330        -1.50427
C         47.68059        58.48112        -2.22547
C         46.44868        59.17004        -2.26722
C         47.47124        61.22487        -1.45819
C         46.29970        60.50967        -1.80076
C         48.85471        37.98906        -0.16178
C         50.22161        39.96613        -0.33743
C         48.92272        39.39377        -0.21786
C         50.50680        41.33162        -0.07945
C         48.61068        42.39884        -0.36655
C         50.20352        44.34829        -0.58316
C         48.90400        43.71474        -0.93645
C         50.27237        45.80708        -0.73057
C         48.97347        46.64845        -0.94413
C         50.13894        48.64064         0.00561
C         48.92865        48.02322        -0.44132
C         50.28887        50.03054         0.17857
C         49.04383        50.80697        -0.00949
C         50.35714        53.00370        -0.03105
C         49.04029        52.32371        -0.04990
C         50.48194        54.38027        -0.22872
C         48.59812        55.28363        -0.82699
C         50.19210        57.05771        -1.53580
C         48.89479        56.39117        -1.63991
C         50.20474        58.52278        -1.79913
C         48.91162        59.27092        -2.02040
C         49.90864        61.30730        -1.01602
C         48.77653        60.65631        -1.51048
C         51.53640        42.18369        -0.43519
C         52.61259        44.35936        -0.06609
C         51.40481        43.63814        -0.31071
C         52.65616        45.75512         0.15202
C         51.39612        46.46390        -0.02966
C         53.04158        48.73166         0.54982
C         51.19887        47.75008         0.39677
C         52.92805        50.02366         0.05436
C         51.60556        50.72350         0.27383
C         52.79442        52.80928        -0.66927
C         51.60322        52.22170         0.02591
C         52.76434        54.24586        -1.14235
C         51.56363        55.06172        -0.82716
C         52.69051        57.17436        -1.51628
C         51.42066        56.40863        -1.28639
C         52.62140        58.65464        -1.28318
C         51.31514        59.30043        -1.23676
C         52.31834        61.32451        -0.31389
C         51.19219        60.65914        -0.90509
C         53.90753        46.41815         0.31033
C         55.33758        48.49949         0.04443
C         54.12148        47.83050         0.28503
C         55.39009        49.91586        -0.11402
C         54.14853        50.67790        -0.33425
C         55.21250        52.86134        -0.95221
C         54.09857        52.08049        -0.62682
C         55.25332        54.29687        -0.82284
C         54.08320        54.95580        -1.51748
C         55.15515        57.19487        -0.69406
C         54.03577        56.48515        -1.38950
C         55.01384        58.57376        -0.34032
C         53.82270        59.37551        -0.72453
C         54.60276        61.29188         0.62081
C         53.55830        60.69783        -0.11049
C         56.63928        50.53726         0.19314
C         57.64944        52.86376         0.48171
C         56.94465        51.85795        -0.18165
C         57.51149        54.27783         0.26802
C         56.36874        54.98001        -0.33872
C         57.35017        57.14110         0.41879
C         56.29115        56.44617        -0.21481
C         57.30163        58.60058         0.56199
C         56.02226        59.27570         0.34969
C         56.80415        61.22925         1.67710
C         55.83229        60.61946         0.83435
C         58.51435        55.04354         0.88141
C         59.44594        57.10368         1.78243
C         58.47315        56.45119         0.97373
C         59.32956        58.44202         2.16752
C         58.33694        59.29079         1.49050
C         58.77081        61.06388         3.16095
C         57.95838        60.57090         2.11082
C         60.08991        59.01012         3.21706
C         59.82859        60.30654         3.67100
O         49.45038        55.21880         0.25970
O         46.88719        46.65368        -2.27083
O         40.22106        49.71385        -0.39972
O         52.04064        48.26148         1.39657
O         53.52495        56.95909        -2.68311
O         38.40737        59.38214         2.10007
O         46.66533        56.31700        -2.56589
O         48.52729        43.90723        -2.34744
O         46.83260        51.53986         1.84941
O         36.90476        54.92079         2.65788
O         48.97045        51.56734        -1.31146
O         42.39421        45.29156        -1.73690
O         36.17963        56.61908        -0.64212
O         49.93379        46.40020        -2.02582
O         52.44250        53.14475        -2.07383
O         32.14319        59.35784         1.57101
O         51.78966        51.69271         1.38682
O         49.47114        41.97472         0.63879
O         56.36212        52.24571        -1.40997
O         38.61291        48.09603         2.34546
O         46.20830        42.85944        -2.49608
O         53.55209        59.38705        -2.15769
O         49.84384        59.04550        -3.13718
O         42.71521        59.17531         1.24569
O         58.46559        59.32625         0.04176
O         34.63404        52.37979        -0.24679
O         42.29945        49.92766         2.45572
O         46.75255        39.87758         0.95963
O         45.74964        37.41495        -1.69270
O         45.34568        58.48150        -2.75550
O         54.34030        54.67885        -2.91260
H         53.81363        53.88195        -3.15728
O         47.97789        53.88041         1.48907
H         47.80574        53.25797         2.23019
O         45.06197        39.84746        -2.35374
H         45.47017        40.62199        -2.79736
O         29.52708        59.03756         1.45027
H         30.21716        59.13542         2.14596
O         41.80988        52.28490         3.30545
H         42.76079        52.04746         3.46655
O         47.61262        53.54250        -2.14779
H         47.29681        54.15767        -2.84453
O         44.44901        52.24345         2.80541
H         45.36423        51.87007         2.88388
O         40.21338        62.62686        -0.92184
H         40.04482        62.21219        -1.79218
O         40.56915        54.69027         3.24112
H         41.06554        53.90893         3.59886
O         43.03327        41.72443         1.57044
H         42.29129        41.29988         2.05293
H         29.45776        56.57921         0.25446
H         28.52226        58.39903        -1.19497
H         30.72796        62.04878        -1.88728
H         28.84358        60.52496        -2.39054
H         31.80782        52.59146         1.57929
H         30.65563        54.52511         0.63216
H         32.95989        62.41114        -0.88783
H         34.36969        48.12503         1.14375
H         33.18880        50.06958         1.68081
H         35.40540        62.50803        -0.39624
H         36.81998        43.84422         0.58966
H         35.59400        45.98780         0.83103
H         37.87025        62.48839        -0.32794
H         39.32615        39.62877         0.61136
H         38.05943        41.73212         0.45921
H         40.58475        62.11597         1.02941
H         41.78598        35.36499         0.77847
H         40.54523        37.50012         0.67522
H         42.59935        62.25939        -1.23316
H         45.21833        32.02512         1.09175
H         43.04656        33.24647         1.08805
H         44.95856        62.19801        -1.55724
H         47.34179        33.21244         0.58058
H         48.56044        35.30431         0.19625
H         47.36675        62.25399        -1.08228
H         49.80359        37.43519        -0.08698
H         51.04647        39.29337        -0.61903
H         49.81332        62.34130        -0.65196
H         52.48168        41.79056        -0.83682
H         53.54833        43.78511         0.00425
H         52.17985        62.34894         0.06284
H         54.80345        45.77944         0.24796
H         56.28028        47.93416         0.02149
H         54.46076        62.29210         1.05567
H         57.32625        49.98910         0.85564
H         58.34198        52.56102         1.28238
H         56.56616        62.21483         2.10502
H         59.35493        54.51861         1.35994
H         60.22973        56.48353         2.24349
H         58.54408        62.04890         3.59338
H         60.87261        58.40677         3.69855
H         60.43563        60.71892         4.48905
