         621
 CSIRO Nanostructure Databank - Neutral Graphene Oxide Data Set
C          6.12202        31.48717        -0.76302
C          6.18287        32.76579        -1.21297
C          8.35054        27.28478         0.69273
C          8.36904        28.62006         0.35963
C          7.20960        29.37086        -0.06765
C          8.63092        31.24653        -0.81903
C          7.29548        30.67605        -0.50167
C          8.75532        32.67613        -1.26171
C          7.45788        33.45807        -1.50660
C          8.79961        35.54783        -1.48123
C          7.55324        34.90886        -1.48370
C          8.87806        36.95060        -1.68165
C         10.61423        22.93756         1.54414
C         10.70083        24.44604         1.45239
C          9.53983        25.17143         1.19810
C         10.74607        27.27055         1.42044
C          9.53867        26.58383         1.12437
C         10.78433        28.73973         1.28073
C          9.60506        29.39971         0.61952
C         11.21930        31.29141        -0.26342
C          9.85313        30.56688        -0.27890
C         11.02112        32.79910        -0.07656
C          9.94396        33.45665        -0.87205
C         11.33489        35.51952        -1.03160
C          9.99889        34.80769        -1.10536
C         11.24336        37.01348        -1.07548
C         10.08343        37.68416        -1.50939
C         11.18842        39.90241        -1.46252
C         10.07016        39.11070        -1.70666
C         11.20724        41.30986        -1.60998
C         13.25455        18.75672         0.95781
C         13.23668        20.14179         1.26553
C         12.00096        20.89457         1.25723
C         13.13465        22.98366         1.87556
C         11.94882        22.24296         1.52907
C         13.15930        24.38327         1.94174
C         11.92664        25.12791         1.69362
C         13.17102        27.26580         2.04819
C         11.92428        26.54487         1.69683
C         13.24068        28.79475         1.84811
C         12.08543        29.44788         1.23175
C         13.42521        31.48034         0.94037
C         12.20211        30.73121         0.74734
C         13.44545        32.89079         0.79652
C         12.19469        33.59379         0.40849
C         13.38855        35.76477         0.45034
C         12.30160        35.01119         0.02457
C         13.47142        37.15020         0.11754
C         12.48915        37.74489        -0.82313
C         13.41846        40.10446        -0.31650
C         12.44599        39.23313        -1.03899
C         13.55761        41.45112        -0.87997
C         12.39790        42.06885        -1.42627
C         13.62322        44.22291        -1.50362
C         12.45246        43.46617        -1.69012
C         13.60744        45.60756        -1.63902
C         15.74697        14.68281         0.01889
C         15.64762        15.73180         1.09801
C         14.42687        16.58837         0.91088
C         15.72869        18.66333         1.24342
C         14.43244        17.96258         1.05620
C         15.70695        20.13889         1.57051
C         14.40878        20.80255         1.67989
C         15.67339        22.93765         2.32674
C         14.35096        22.19308         2.13687
C         15.65663        24.39815         2.17827
C         14.41901        25.10075         2.07479
C         15.66530        27.23148         1.93520
C         14.44107        26.52499         2.02149
C         15.72589        28.67166         1.75374
C         14.54853        29.42935         1.65736
C         15.86251        31.52499         1.38278
C         14.61866        30.80992         1.31799
C         15.83480        32.96065         1.38928
C         14.59302        33.62217         1.11472
C         15.77339        35.82480         1.39540
C         14.43519        35.10415         1.37934
C         15.66246        37.27930         1.45901
C         14.41670        37.99686         0.81927
C         15.69937        40.26249         0.81711
C         14.47929        39.48724         0.56009
C         15.93437        41.49589         0.06918
C         14.84557        42.10968        -0.83170
C         15.96873        44.39975        -0.55387
C         14.97212        43.55019        -1.33336
C         15.90677        45.80107        -0.66446
C         14.73834        46.42433        -1.30835
C         15.66436        48.76255        -0.98365
C         14.67537        47.77713        -1.52467
C         16.10728        49.74079        -2.04245
C         18.22492        11.25309        -2.50873
C         18.16036        12.24879        -1.50602
C         16.99998        12.98073        -1.25671
C         18.19322        14.53841         0.26095
C         16.95607        14.07819        -0.31837
C         18.19876        15.75630         1.10185
C         16.93466        16.52270         1.22841
C         18.20662        18.58071         1.85146
C         16.95208        17.85737         1.48566
C         18.20382        20.08432         2.05185
C         16.94007        20.84216         1.97977
C         18.19373        22.94523         2.13313
C         16.94812        22.20784         2.12287
C         18.16285        24.36056         2.15195
C         16.89378        25.07393         2.14716
C         18.10000        27.16397         1.72362
C         16.88369        26.49240         1.99124
C         18.04148        28.45633         1.21052
C         16.95875        29.32710         1.42407
C         18.30910        31.51408         1.60496
C         17.09251        30.78307         1.41467
C         18.21127        32.89958         1.94117
C         17.02555        33.68740         1.73921
C         18.16164        36.00640         1.88216
C         16.99032        35.16899         1.70999
C         18.17999        37.40723         1.31974
C         16.87559        38.13465         1.68279
C         18.13157        40.39656         1.50509
C         16.82791        39.64618         1.51209
C         18.18669        41.78021         0.98826
C         17.07716        42.37889         0.42461
C         18.14316        44.61606         0.56421
C         17.06834        43.79883         0.11482
C         18.12962        46.02269         0.37162
C         16.95225        46.61888        -0.15921
C         18.13948        48.86996        -0.18569
C         16.84697        48.09503        -0.26756
C         18.31375        50.11300        -0.97855
C         17.29890        50.45727        -1.96610
C         18.73319        52.28971        -2.80005
C         17.56533        51.50759        -2.89335
C         18.99138        53.39112        -3.64608
C         20.49882         8.20305        -5.71169
C         20.22081         8.75118        -4.45705
C         19.25692         9.69915        -4.04742
C         20.67921        10.91276        -2.30450
C         19.39659        10.55411        -2.91248
C         20.67909        11.97047        -1.24919
C         19.39875        12.58884        -0.76401
C         20.63604        14.49388         0.28911
C         19.42155        13.89635        -0.04602
C         20.66348        15.98664         0.43252
C         19.49959        16.52365         1.22022
C         20.65403        18.72354         1.37619
C         19.49559        17.97823         1.47305
C         20.68058        20.14726         1.66758
C         19.47167        20.82466         1.90487
C         20.66367        22.97433         2.02309
C         19.43526        22.24822         2.01199
C         20.62121        24.39133         2.16196
C         19.40205        25.07250         2.15835
C         20.62544        27.35929         2.42218
C         19.36887        26.55599         2.18729
C         20.77436        28.82647         2.14951
C         19.96282        29.55766         1.35332
C         20.89091        31.69018         2.12573
C         19.78059        31.03966         1.32191
C         20.69432        33.07419         2.49338
C         19.37767        33.47931         2.58358
C         20.59654        36.15622         2.46424
C         19.30240        35.60644         2.60008
C         20.61949        37.51700         1.99096
C         19.44641        38.16422         1.64876
C         20.66767        40.38378         1.28621
C         19.41732        39.64982         1.63537
C         20.63662        41.86554         1.32956
C         19.40764        42.51133         1.18441
C         20.62484        44.75800         1.31429
C         19.30699        43.97404         1.20506
C         20.61247        46.16909         0.89775
C         19.34861        46.81974         0.58773
C         20.54325        49.00699         0.44283
C         19.36135        48.16294         0.23045
C         20.64330        50.34480        -0.14053
C         19.50139        50.82746        -0.91348
C         20.79927        52.79814        -1.56738
C         19.68768        51.98710        -1.76192
C         21.08451        53.90180        -2.42256
C         20.14590        54.19352        -3.48448
C         21.50132        56.14279        -4.12248
C         20.38048        55.30879        -4.31559
C         21.69242        57.28841        -4.93004
C         23.04808         6.27533        -7.65967
C         21.84016         6.77648        -7.17493
C         23.03097         8.05112        -5.45294
C         21.77971         7.64270        -6.05350
C         23.11810         9.02111        -4.41198
C         22.07091         9.27435        -3.54090
C         23.21674        10.97151        -2.21122
C         21.92266        10.42164        -2.68639
C         23.23912        12.12948        -1.32878
C         21.94412        12.74626        -1.04272
C         23.17466        14.40708         0.54031
C         21.92358        13.97435        -0.20766
C         23.19963        15.92806         0.71404
C         21.98109        16.59663         0.83332
C         23.20776        18.82083         1.05618
C         21.91402        18.06667         0.93835
C         23.18581        20.24133         1.47937
C         21.92871        20.88498         1.68620
C         23.15007        23.04336         1.84990
C         21.91133        22.28897         1.90261
C         23.14155        24.42864         1.99584
C         21.89740        25.11001         2.36979
C         23.20781        27.32952         2.41636
C         21.91482        26.59742         2.57190
C         23.22724        28.75656         2.83480
C         21.91524        29.52566         2.77783
C         23.16741        31.68582         3.25206
C         21.95579        30.99662         2.63759
C         23.15688        33.18450         2.94573
C         21.83702        33.86377         3.00051
C         23.14972        36.08309         2.69241
C         21.81996        35.44410         2.93587
C         23.13115        37.58164         2.61559
C         21.86188        38.30461         2.22746
C         23.14732        40.50132         1.75145
C         21.94567        39.67496         1.61132
C         23.13125        41.87713         1.50027
C         21.87137        42.59357         1.40363
C         23.12168        44.72042         1.22267
C         21.89088        44.00065         1.32574
C         23.08210        46.11045         0.94533
C         21.83672        46.82513         0.81070
C         23.09773        49.02234         0.40745
C         21.87851        48.29600         0.74577
C         23.10153        50.41324         0.24102
C         21.82716        51.07956        -0.03304
C         22.78016        53.45239        -0.25309
C         21.58236        52.57524        -0.30535
C         23.17358        54.38841        -1.16350
C         22.24477        54.70519        -2.24578
C         23.58573        56.68549        -2.90483
C         22.45744        55.83960        -3.08054
C         23.78231        57.79561        -3.74791
C         22.80877        58.11878        -4.75855
C         24.11836        60.07969        -5.39969
C         23.00116        59.28078        -5.56593
C         24.25924         6.68728        -7.10711
C         25.52157         8.13400        -5.57728
C         24.27798         7.62240        -6.04570
C         25.61440         9.21365        -4.67798
C         24.31483         9.98398        -4.40081
C         25.67531        11.53135        -2.89879
C         24.44501        10.66302        -3.02253
C         25.70353        12.54249        -1.75849
C         24.42663        12.82171        -0.99945
C         25.70998        14.44301         0.42422
C         24.43658        13.89735        -0.10838
C         25.70809        15.84583         0.97256
C         24.43505        16.58445         0.96763
C         25.76117        18.77620         1.31204
C         24.44300        18.01084         1.28850
C         25.64482        20.26452         0.92408
C         24.40094        20.95329         1.46841
C         25.62643        23.12659         1.61178
C         24.40294        22.35802         1.63400
C         25.62658        24.50916         1.69114
C         24.32407        25.25686         1.56232
C         25.67764        27.35668         2.34423
C         24.34953        26.67307         2.10504
C         25.62406        28.87547         2.19453
C         24.45988        29.54917         2.62154
C         25.64107        31.68455         2.61638
C         24.44891        30.96241         2.78123
C         25.58526        33.10018         3.17052
C         24.32592        33.89705         2.85944
C         25.61816        36.04482         2.27436
C         24.31986        35.34725         2.60311
C         25.66479        37.54555         2.22559
C         24.42088        38.35108         2.45202
C         25.60092        40.39407         1.36475
C         24.41017        39.79452         2.03270
C         25.59772        41.89209         1.11698
C         24.36101        42.63043         1.40069
C         25.65921        44.74340         1.20942
C         24.39024        44.02502         1.29254
C         25.53167        46.17735         1.06455
C         24.30642        46.80925         0.78269
C         25.60974        48.87343        -0.09570
C         24.30259        48.19226         0.24083
C         25.62900        50.35647        -0.07422
C         24.42680        51.07759         0.15885
C         25.74471        53.17857        -0.00885
C         24.60436        52.46445         0.36669
C         25.66778        54.69398        -0.13372
C         24.40798        55.22258        -0.92665
C         25.89486        57.08200        -1.94816
C         24.56886        56.42031        -1.82019
C         26.01528        58.20815        -2.75991
C         24.96332        58.61910        -3.62981
C         25.10400        59.74797        -4.45237
C         26.81555         9.63356        -4.10481
C         28.11228        11.03849        -2.55125
C         26.92457        10.71414        -3.16155
C         28.17997        11.93415        -1.37060
C         26.93499        12.59670        -0.89047
C         28.25609        14.60893        -0.01850
C         27.01010        13.79823         0.02348
C         28.25467        15.92490         0.40111
C         27.06424        16.61310         0.97609
C         28.15919        18.86222         0.70487
C         27.02823        18.09621         0.97780
C         28.17643        20.29121         0.85800
C         26.94591        20.94031         1.35722
C         28.14866        23.17859         1.23522
C         26.92851        22.41925         1.57217
C         28.09664        24.58155         1.25156
C         26.85136        25.27181         1.57247
C         27.95603        27.43395         1.15304
C         26.81944        26.65419         1.65545
C         27.92085        28.94382         1.22032
C         26.76309        29.62676         1.84470
C         27.97559        31.75482         1.57410
C         26.80225        31.03844         2.04504
C         27.99007        33.21288         1.59668
C         26.81998        33.96829         1.29829
C         28.04492        35.98550         1.63425
C         26.78675        35.32839         1.67260
C         28.04204        37.41515         1.30029
C         26.79629        38.21387         1.49211
C         28.01973        40.35620         1.01682
C         26.87799        39.69785         1.42830
C         28.05631        41.80053         0.86211
C         26.89099        42.58542         1.02306
C         28.20756        44.65275         0.83959
C         26.91059        44.02848         1.09524
C         28.49818        45.96689         1.10238
C         26.67322        47.05793         1.13386
C         28.14978        48.79132         0.05431
C         26.83481        48.20665         0.40645
C         28.13629        50.26465        -0.32308
C         26.87291        51.02831        -0.14533
C         28.20775        53.12535        -0.36599
C         26.93285        52.43917        -0.19332
C         28.17416        54.52626        -0.58135
C         26.97506        55.24218        -0.70691
C         27.02118        56.50273        -1.32832
C         29.51873        12.51138        -0.91153
C         30.61016        14.73318        -0.71620
C         29.46185        13.99598        -0.56398
C         30.68344        16.11824        -0.34113
C         29.51359        16.69576         0.34995
C         30.59709        19.01381         0.00947
C         29.46766        18.20452         0.50467
C         30.51946        20.39851         0.11726
C         29.33800        21.04731         0.65684
C         30.52838        23.24290         0.64076
C         29.33682        22.48872         0.85022
C         30.52537        24.66116         0.81080
C         29.29454        25.33783         1.04678
C         30.44985        27.50044         0.94139
C         29.26202        26.75809         1.03676
C         30.41860        28.96185         0.84986
C         29.18681        29.67254         1.03676
C         30.21065        31.77140         0.29007
C         29.12183        31.08726         1.04998
C         30.37585        33.27786         0.03162
C         29.16774        33.90408         1.97254
C         30.52499        35.97042         1.35302
C         29.27155        35.29268         1.65388
C         30.49978        37.41850         1.26064
C         29.31965        38.12144         1.19382
C         30.52245        40.29164         0.60752
C         29.24737        39.55307         0.79102
C         30.50614        41.76748         0.53115
C         29.33016        42.45049         0.57509
C         30.69648        44.57340         0.20132
C         29.32039        43.89113         0.13285
C         30.73748        45.99917         0.15552
C         29.56802        46.73072         0.49916
C         30.64536        48.81267        -0.18223
C         29.45968        48.10811         0.22837
C         30.60927        50.24485        -0.33536
C         29.43155        50.98361        -0.30973
C         29.40764        52.40430        -0.37201
C         31.80201        16.89136        -0.55506
C         33.00448        19.02834        -0.51677
C         31.82092        18.32449        -0.35899
C         33.02326        20.48285        -0.58977
C         31.65572        21.23322        -0.28444
C         32.94882        23.32231         0.13503
C         31.73243        22.61640         0.18190
C         32.99244        24.71535         0.49554
C         31.73987        25.41099         0.73001
C         32.95078        27.56515         1.08192
C         31.69443        26.81509         0.86841
C         32.95096        29.09849         1.02979
C         31.61132        29.65216         0.60002
C         32.75974        31.78840        -0.37096
C         31.51131        31.00299         0.05090
C         32.80081        33.20961         0.20800
C         31.66045        33.90824         0.52406
C         33.00142        35.98450         1.01362
C         31.70281        35.29908         0.97925
C         33.07632        37.42758         1.14664
C         31.78836        38.14961         1.27337
C         33.04772        40.34370         0.85922
C         31.77609        39.61130         1.02907
C         32.95800        41.69387         0.84072
C         31.81716        42.36309         0.09651
C         33.10770        44.53387        -0.37894
C         31.88522        43.86556         0.04362
C         33.06975        45.92527        -0.56810
C         31.91611        46.69253        -0.25187
C         31.85293        48.10756        -0.35548
C         34.23038        21.24893        -0.35003
C         35.42008        23.34879         0.00498
C         34.19308        22.62117        -0.12163
C         35.44825        24.68883         0.32748
C         34.22420        25.39164         0.56743
C         35.51242        27.61123         0.75919
C         34.25247        26.81726         0.97020
C         35.42125        29.00311         0.25627
C         34.13593        29.70826         0.27448
C         35.26142        31.74284        -0.57307
C         34.05267        31.01945        -0.11846
C         35.31441        33.22675        -0.31982
C         34.08289        33.94257         0.11937
C         35.47209        35.91932         0.94504
C         34.16761        35.28082         0.73824
C         35.53209        37.44436         1.09391
C         34.25503        38.14104         0.96469
C         35.56356        40.25803         0.15824
C         34.22457        39.54145         0.37335
C         35.58487        41.57342        -0.50113
C         34.72296        42.62760        -0.15644
C         34.31013        43.81056        -0.79027
C         36.81096        25.32661         0.51081
C         37.91085        27.54744        -0.13092
C         36.80510        26.85082         0.52903
C         37.85393        28.90873        -0.34654
C         36.58519        29.60697        -0.19859
C         37.84478        31.76525        -0.62719
C         36.56506        31.01252        -0.63420
C         37.86824        33.12750        -0.44052
C         36.64715        33.78993         0.07690
C         37.95845        35.96903         0.26160
C         36.73500        35.18573         0.59553
C         37.95047        37.33713         0.30837
C         36.85672        38.19171         0.92577
C         36.71542        39.52831         0.22953
C         39.03024        29.63739        -0.77488
C         40.27526        31.78811        -1.02840
C         39.06255        31.02199        -0.84256
C         40.29106        33.14430        -0.86831
C         39.10202        33.87751        -0.48979
C         39.11725        35.23659        -0.20398
O         36.47626        27.42148         1.84613
O         21.67190        34.70223         4.17296
O         19.74855        44.54898         2.47324
O         25.12881        18.38583         2.54201
O         29.84652        17.33322         1.63252
O         21.08422        48.92346         1.79611
O         25.81570        13.63545        -2.77691
O         34.60423        34.02132        -1.30874
O         27.08610        37.65960         0.16780
O         26.10126        36.84551         3.42852
O         35.57932        36.56615         2.26271
O         24.01849        56.55407        -0.44048
O         25.64806        12.65265        -3.87187
O         26.40588        33.49148         3.98287
O         11.88420        31.09687        -1.47458
O         21.94799        14.13110        -1.67722
O         18.19082        19.14502         3.20515
O         33.64364        27.06987         2.28744
O         11.03482        33.26618         1.30090
O         34.09463        42.44805         1.09504
O          9.40972        30.29886        -1.63203
O         14.51821        37.71188         2.25090
O         21.95867        25.72806         3.74026
O         24.84571        48.23407        -1.15628
O         29.84663        39.71229        -0.56272
O         25.34160        40.91660         0.02617
O         20.03726        11.50089        -0.01095
O         27.55767        28.23126        -0.03940
O         27.35862        11.36201        -0.26720
O          8.26838        32.88745        -2.60921
O         22.57711        18.66737        -0.24947
O         23.54279        53.21864         0.89414
O         13.07194        38.38761        -2.04942
O         19.11145        34.52718         3.46519
O         25.60349        20.38727        -0.46273
O         24.19280         9.86796        -1.86113
O         21.07838         8.30416        -3.41673
O         13.02659        28.19127         3.16750
O         35.78301        31.29060        -1.86249
O         27.70031        46.67331         2.00461
O         29.65351        33.85134        -0.76294
O         36.86970        34.04203         1.51492
O         21.42192        39.73809         0.21753
O         19.12795        28.89433         0.44813
O          9.81696        29.55902         2.05441
O         22.44003        29.02414         4.03339
O         31.74369        39.10606         2.42368
O         16.68985        38.97029         2.82613
O         32.14592        21.02786        -1.63104
O         15.95144        19.63397         0.16044
O         30.45929        31.08415        -0.97729
O         24.63140        39.41447         3.43603
O         15.90374        41.25410        -1.41637
O         18.80559        40.27470         2.81099
O         19.04123        15.68817         2.31555
O         17.16824        48.85566         0.94205
O         28.06038        49.25102        -1.36642
O         19.70704        27.10886         3.53166
O         22.27947        38.21940         3.61911
O         26.42682        13.51584         1.33217
O         24.09747        10.91980        -5.37751
O         13.25537        40.12166         1.14955
O         26.51038        15.99449         2.17667
O         14.92550        22.43084         3.47868
O         27.06271        21.45391         2.70357
O         23.06059        13.82003         1.86136
H         23.93041        13.88462         2.31120
O         18.06997        37.33759        -0.14632
H         18.87084        36.89197        -0.49524
O         33.11189        29.57631         2.39824
H         33.57283        28.85335         2.89199
O         15.51590        43.47801        -2.68314
H         16.07149        42.66442        -2.72085
O         32.72315        31.92855        -1.80788
H         31.77731        31.89988        -2.08495
O         37.33508        38.50682         2.26692
H         37.07620        37.74490         2.83659
O         20.44199        16.48553        -0.93223
H         21.09899        16.04848        -1.52269
O         25.56505        55.23531         1.19912
H         25.09659        56.09911         1.11773
O         33.80754        39.28478        -1.02716
H         33.41868        40.11726        -1.38600
O          9.79899        22.37891         0.51508
H          8.91318        22.79167         0.54820
O         19.99351        31.47570        -0.05593
H         19.50626        30.84596        -0.63192
O         25.95954        27.15594         3.77560
H         25.16837        27.43536         4.28619
O         12.01816        35.16888        -2.29887
H         11.37275        35.27415        -3.03068
O         30.17859        33.26694         2.61835
H         29.87884        32.38200         2.91434
O         20.72347        53.02560         0.79411
H         21.27706        53.03890         1.60488
O         25.76194        33.41945         0.64513
H         25.99868        32.52346         0.32678
O         14.92114        49.55840        -0.00981
H         15.55283        49.75929         0.72324
O         24.11401        25.44361         0.10541
H         24.27706        24.58095        -0.33470
O         13.89689        35.16226         2.73234
H         13.88112        36.11450         2.99513
O         23.08025        31.56168         4.68773
H         23.78365        32.10914         5.09490
O         15.47944        15.03417         2.38389
H         16.34737        14.65502         2.64047
O         29.02025        43.86264        -1.30019
H         28.16874        43.38887        -1.41618
O         30.51270        12.27845        -1.91049
H         30.28090        12.78974        -2.71280
O         32.03206        41.87894        -1.28420
H         31.23876        42.12972        -1.80746
O         37.69985        24.85494        -0.50979
H         37.28540        25.00437        -1.38406
H          5.13976        31.03658        -0.55464
H          5.25406        33.34234        -1.33981
H          7.43238        26.69673         0.54229
H          6.22118        28.89387         0.02189
H          6.63301        35.51168        -1.50208
H          7.96521        37.49461        -1.96507
H         10.13126        22.70501         2.54938
H          8.59469        24.63979         1.00708
H          9.13474        39.58013        -2.04450
H         10.29762        41.82360        -1.95306
H         12.30347        18.25889         0.71732
H         11.07285        20.37295         0.98385
H         11.52526        43.98833        -1.97124
H         12.67006        46.11124        -1.92097
H         14.81679        14.30712        -0.43306
H         13.47324        16.07049         0.72547
H         13.77882        48.19935        -2.00378
H         15.37038        50.02645        -2.80844
H         17.29148        11.01847        -3.04454
H         16.07425        12.71701        -1.79062
H         16.81737        51.73492        -3.66706
H         18.26657        53.65005        -4.43226
H         19.74008         8.26180        -6.50675
H         18.34584         9.81680        -4.65457
H         19.66621        55.54535        -5.11790
H         20.94757        57.53082        -5.70240
H         23.04402         5.57051        -8.50260
H         20.89869         6.46627        -7.65110
H         24.25208        60.97216        -6.02675
H         22.24669        59.53124        -6.32531
H         25.20986         6.32172        -7.52104
H         26.44749         7.71644        -6.00645
H         26.97493        58.74566        -2.79542
H         26.00345        60.37314        -4.35869
H         27.71940         9.02527        -4.27725
H         29.03422        10.50501        -2.83152
H         29.11643        55.03630        -0.83813
H         28.00859        56.94400        -1.54012
H         29.84830        11.95437         0.00366
H         31.50563        14.25026        -1.13545
H         31.56752        50.77431        -0.44842
H         30.36062        52.94875        -0.45021
H         32.69940        16.42560        -0.98921
H         33.95718        18.48331        -0.59283
H         33.96701        46.44135        -0.94058
H         32.75766        48.66435        -0.64196
H         35.19377        20.71952        -0.30360
H         36.36939        22.81677        -0.15354
H         36.33154        41.72695        -1.29738
H         34.89375        44.22825        -1.62556
H         37.23545        24.97088         1.48577
H         38.81050        26.97347        -0.39565
H         38.87013        37.87212         0.02154
H         37.66240        40.00778        -0.06847
H         39.96038        29.06617        -0.91467
H         41.20496        31.24978        -1.26457
H         41.23390        33.70000        -0.97996
H         40.05841        35.79565        -0.32053
