         638
 CSIRO Nanostructure Databank - Neutral Graphene Oxide Data Set
C         22.96793        69.88929         0.03222
C         22.94945        71.29980        -0.05797
C         21.73093        72.04024        -0.04819
C         22.96305        74.13015        -0.17888
C         21.75035        73.42587        -0.11520
C         25.45637        65.62467        -0.02559
C         25.45117        67.03663         0.06301
C         24.22821        67.76325         0.13863
C         25.42288        69.91549         0.01003
C         24.18798        69.18148         0.08859
C         25.41293        71.28783        -0.18808
C         24.18517        72.00968        -0.18276
C         25.43955        74.14920        -0.19252
C         24.19313        73.44462        -0.21461
C         27.85883        61.33611        -0.07726
C         27.88121        62.74323        -0.06137
C         26.67545        63.48488        -0.11097
C         27.91673        65.61571        -0.08396
C         26.66876        64.90045        -0.07592
C         27.92097        67.04102        -0.02045
C         26.69784        67.73384         0.07019
C         27.95654        69.91698        -0.05726
C         26.70049        69.20395         0.37264
C         27.94747        71.30130        -0.22593
C         26.66920        72.01313        -0.59992
C         27.89931        74.16332        -0.21707
C         26.66602        73.48666        -0.26818
C         30.32733        56.98559         0.42614
C         30.29346        58.38556         0.21346
C         29.09983        59.08681         0.16755
C         30.38196        61.31378         0.16382
C         29.05348        60.55746         0.21068
C         30.36864        62.76561        -0.11668
C         29.13898        63.46876        -0.06407
C         30.38410        65.60363        -0.20019
C         29.14801        64.89526        -0.12852
C         30.39758        67.04375        -0.16795
C         29.17779        67.75783        -0.05215
C         30.40451        69.90783        -0.24449
C         29.18166        69.19365        -0.08742
C         30.38945        71.32672        -0.28455
C         29.17135        72.02230        -0.29758
C         30.34881        74.19643        -0.15369
C         29.14767        73.48908        -0.27661
C         32.84258        52.73213         0.59330
C         32.82082        54.16179         0.76479
C         31.57950        54.88323         0.69478
C         32.79671        57.03053         0.64329
C         31.54509        56.27890         0.58452
C         32.83088        58.36822         0.34459
C         31.59371        59.05370        -0.18099
C         32.83039        61.21836        -0.13079
C         31.64117        60.55549        -0.01444
C         32.84046        62.66617        -0.60028
C         31.58491        63.44209        -0.27854
C         32.86352        65.55056        -0.29050
C         31.61197        64.87028        -0.28251
C         32.86391        66.99680        -0.58674
C         31.63115        67.76052        -0.32189
C         32.88270        69.90540        -0.26652
C         31.64686        69.17561        -0.34172
C         32.88830        71.34882        -0.04195
C         31.67103        72.09327        -0.53153
C         32.73910        74.18094         0.36890
C         31.61387        73.53128        -0.06953
C         35.30036        48.47468         0.94654
C         35.26224        49.84389         0.79150
C         34.03778        50.57859         0.64526
C         35.26703        52.67932         1.23545
C         34.01298        51.97618         0.74293
C         35.32011        54.13668         0.76470
C         34.01649        54.85799         0.95839
C         35.31551        57.01095         0.81950
C         34.01615        56.34066         1.21649
C         35.31334        58.40946         0.53335
C         34.08001        59.11293         0.33549
C         35.33135        61.19733         0.03529
C         34.09126        60.49581         0.04305
C         35.38642        62.65706        -0.35301
C         34.08418        63.40133        -0.20035
C         35.21294        65.35969         0.70936
C         34.05140        64.76876        -0.02658
C         35.50977        67.22182        -0.78573
C         34.18556        67.84948        -0.76523
C         35.30677        69.87104         0.15601
C         34.10879        69.22988        -0.27975
C         35.25251        71.24990         0.77148
C         34.00348        72.00326         0.39021
C         35.27040        74.15941         0.45943
C         33.98398        73.45817         0.80035
C         37.76067        44.16283         0.91853
C         37.71595        45.56638         0.67067
C         36.58972        46.30788         1.03964
C         37.72544        48.47397         0.44538
C         36.61826        47.79452         1.21782
C         37.73075        49.86121         0.37616
C         36.52662        50.59393         0.71484
C         37.76725        52.71756         0.65440
C         36.53923        51.96854         0.81941
C         37.80488        54.13464         0.88838
C         36.54456        54.86089         1.33674
C         37.75825        57.00525         0.79892
C         36.52807        56.32029         0.91997
C         37.78752        58.38995         0.56905
C         36.55162        59.10925         0.41481
C         37.85424        61.23219        -0.03763
C         36.53711        60.51728         0.19867
C         37.82489        62.71372         0.24069
C         36.60089        63.38085         0.18378
C         37.74865        65.51777         0.42801
C         36.55377        64.77198         0.41450
C         37.70118        66.99787         0.51681
C         36.56476        67.75969        -0.04607
C         37.80029        69.90771         0.17351
C         36.49346        69.16234         0.25628
C         37.74100        71.37399         0.49824
C         36.53405        72.03580         0.53289
C         37.72809        74.18229         0.25990
C         36.49262        73.48731         0.43729
C         40.34985        39.90146         0.84045
C         40.21279        41.29854         0.55037
C         39.04610        42.01754         0.86667
C         39.98073        44.07852        -0.09154
C         38.90281        43.41173         0.58511
C         40.04626        45.51692        -0.19710
C         38.90292        46.23169         0.15814
C         40.11544        48.47997        -0.47699
C         38.82587        47.68794        -0.09186
C         40.10362        49.93274        -0.27002
C         38.93754        50.60535         0.05772
C         40.18949        52.76464         0.19950
C         38.94674        52.04607         0.27144
C         40.23080        54.16259         0.50929
C         39.00462        54.82778         0.81983
C         40.28778        57.00559         0.83979
C         39.02027        56.28191         1.21209
C         40.26862        58.43637         0.82142
C         39.03906        59.09875         0.66396
C         40.29254        61.32377         0.86106
C         38.98937        60.55595         0.69890
C         40.29938        62.74868         0.50752
C         39.03587        63.43794         0.40774
C         40.23986        65.61965         0.41439
C         39.00119        64.86388         0.42869
C         40.27814        66.99252         0.59914
C         39.01576        67.74204         0.77026
C         40.24149        69.94361         1.00316
C         39.00476        69.18896         0.66836
C         40.21769        71.39085         0.52772
C         39.00109        72.08050         0.44333
C         40.20324        74.21646         0.17432
C         38.97559        73.51996         0.28736
C         42.81848        35.68271         0.72953
C         42.76032        37.08773         0.64461
C         41.56509        37.79122         0.75421
C         42.67932        39.85861        -0.06600
C         41.50807        39.20150         0.53296
C         42.53930        41.24490        -0.68022
C         41.23910        41.92825        -0.23039
C         42.82695        44.32459        -1.01948
C         40.96259        43.21931        -0.64189
C         42.69971        45.67378        -0.60898
C         41.39405        46.26723        -0.07783
C         42.57561        48.48073        -0.18732
C         41.39150        47.76199        -0.34976
C         42.61758        49.90006        -0.28679
C         41.36651        50.67406        -0.61299
C         42.62739        52.77359        -0.05231
C         41.39642        52.08929        -0.09379
C         42.67961        54.17953         0.22584
C         41.47150        54.86767         0.50180
C         42.72514        57.04131         0.63572
C         41.48380        56.31228         0.67059
C         42.74419        58.41870         0.76709
C         41.52026        59.16810         0.82344
C         42.78626        61.30878         0.66822
C         41.54948        60.57475         0.82321
C         42.76412        62.73093         0.47639
C         41.51299        63.41532         0.36219
C         42.77294        65.60874        -0.00117
C         41.47383        64.86676         0.08188
C         42.77250        67.07231         0.24470
C         41.50999        67.77321         0.48983
C         42.71272        69.94540         0.61752
C         41.47642        69.15666         0.62437
C         42.67805        71.40576         0.35441
C         41.44705        72.09898         0.36710
C         42.67759        74.22530         0.06322
C         41.44231        73.53558         0.18460
C         45.28402        32.87769         0.49741
C         44.08190        33.56769         0.67306
C         45.25225        35.70532         0.28350
C         44.03289        34.97787         0.58264
C         45.23748        37.09229         0.14573
C         44.04215        37.88781         0.60884
C         45.09416        39.85235        -0.74797
C         43.88489        39.22590        -0.07643
C         45.13230        41.34931        -0.55145
C         43.82422        42.06697        -0.27096
C         45.14313        44.21609        -0.45579
C         43.91731        43.52681        -0.69756
C         45.12280        45.64829        -0.37345
C         43.88657        46.33778        -0.29593
C         45.11985        48.50317        -0.11875
C         43.84968        47.75828         0.20828
C         45.09058        49.90836        -0.23096
C         43.83729        50.61329        -0.24041
C         45.07844        52.75223        -0.33811
C         43.85124        52.04377        -0.23248
C         45.09840        54.19466        -0.20348
C         43.93995        54.87020         0.16787
C         45.17546        57.09639         0.10776
C         44.03460        56.28620         0.68872
C         45.21537        58.44183         0.30927
C         44.05851        59.13367         0.99600
C         45.24747        61.32248         0.59263
C         44.01453        60.61418         0.68669
C         45.24360        62.73490         0.57051
C         44.01154        63.46629         0.41143
C         45.31406        65.57034        -0.15728
C         44.02484        64.85834         0.19110
C         45.26872        67.08574         0.03684
C         43.97344        67.74330         0.20188
C         45.13222        69.89011        -0.26491
C         43.99465        69.20110         0.42487
C         45.09844        71.39164        -0.14755
C         43.88781        72.09690         0.11600
C         45.16957        74.19718        -0.09974
C         43.90770        73.53681         0.01289
C         46.47204        33.55835         0.23553
C         47.69077        35.68306        -0.05953
C         46.48948        34.97158         0.12411
C         47.69826        37.08859        -0.16732
C         46.43938        37.80931        -0.15163
C         47.62702        39.93159        -0.50224
C         46.40842        39.18896        -0.39804
C         47.61170        41.32360        -0.65817
C         46.34481        42.04083        -0.60591
C         47.59163        44.25617        -0.58771
C         46.35644        43.48738        -0.51082
C         47.55262        45.66704        -0.18098
C         46.35548        46.36064        -0.18711
C         47.57805        48.52922        -0.25014
C         46.34397        47.81379        -0.14659
C         47.55639        49.92310        -0.42422
C         46.30931        50.62852        -0.41501
C         47.53025        52.74807        -0.93664
C         46.28023        52.03886        -0.51526
C         47.51947        54.23306        -0.66137
C         46.35863        54.90694        -0.39809
C         47.61584        57.12189        -0.51328
C         46.28873        56.40336        -0.63624
C         47.64468        58.49311        -0.27779
C         46.43441        59.21553         0.09886
C         47.84023        61.21459         0.59521
C         46.47874        60.56641         0.40420
C         47.82779        62.74824         0.57122
C         46.51914        63.48140         0.70554
C         47.79205        65.62991         0.23074
C         46.48148        65.00394         0.64882
C         47.78669        67.13902         0.31068
C         46.43683        67.79639         0.12545
C         47.56738        69.96868        -0.54531
C         46.46183        69.32042         0.27032
C         47.35650        71.24354        -1.02060
C         46.26388        72.06114        -0.47827
C         47.64988        74.15698        -0.17681
C         46.37762        73.48951        -0.26176
C         48.90057        37.81899        -0.26262
C         50.10863        39.94209        -0.25443
C         48.89955        39.22256        -0.36184
C         50.15551        41.34507        -0.39125
C         48.93120        42.01760        -0.98640
C         50.14005        44.19167        -0.27420
C         48.93386        43.53012        -0.74809
C         50.11023        45.60717         0.09833
C         48.79706        46.37029         0.14028
C         50.04745        48.49298        -0.02097
C         48.84051        47.83284        -0.05455
C         50.11858        49.94081        -0.43146
C         48.79792        50.67306        -0.40273
C         49.95467        52.85073        -0.00260
C         48.78406        52.03494        -0.47728
C         50.08653        54.19000        -0.68875
C         48.79147        54.94610        -0.91811
C         50.05562        57.07984        -0.84195
C         48.83315        56.41862        -0.79286
C         50.08499        58.51141        -0.81128
C         48.86852        59.22895        -0.49934
C         49.99235        61.40702        -0.78143
C         48.88670        60.60864        -0.29057
C         50.11926        62.84704        -0.44615
C         49.02545        63.49876         0.08638
C         50.29145        65.70902         0.09890
C         48.97243        64.95740         0.10857
C         50.20248        67.12713        -0.40584
C         48.89322        67.76986        -0.51320
C         50.12815        70.00432        -0.65680
C         48.85136        69.25500        -0.75707
C         50.15222        71.37956        -0.34586
C         49.10717        72.11685         0.39310
C         50.12510        74.26831        -0.07639
C         48.91457        73.55534        -0.00309
C         51.33415        42.05880        -0.18658
C         52.57129        44.23081         0.01884
C         51.37637        43.49884        -0.15914
C         52.59536        45.66550         0.05215
C         51.35693        46.37219         0.04982
C         52.51737        48.51053         0.23554
C         51.31234        47.78575         0.11078
C         52.47179        49.96274         0.65630
C         51.24639        50.71477         0.19865
C         52.44664        52.87700         0.31801
C         51.26018        52.09911         0.13392
C         52.47079        54.27132         0.01034
C         51.32768        54.93004        -0.47082
C         52.48243        57.11963        -0.30191
C         51.37639        56.33974        -1.01727
C         52.57633        58.54581        -0.79041
C         51.30273        59.21034        -0.95499
C         52.53019        61.39478        -1.36493
C         51.25529        60.63623        -1.22764
C         52.52331        62.84791        -1.14454
C         51.37460        63.54497        -0.75942
C         52.58751        65.69900        -0.82670
C         51.43503        64.97187        -0.55973
C         52.62055        67.13191        -0.69290
C         51.35871        67.84904        -0.67401
C         52.60462        70.00780        -0.72411
C         51.35096        69.28389        -0.80535
C         52.60341        71.38892        -0.67775
C         51.32724        72.17802        -0.83771
C         52.57773        74.27361        -0.29878
C         51.38100        73.60143        -0.29132
C         53.79232        46.41592         0.15426
C         54.97956        48.58280         0.47755
C         53.76952        47.82758         0.28088
C         55.00843        49.98876         0.50651
C         53.72564        50.73438         0.19571
C         54.98020        52.89247         0.48803
C         53.69864        52.16141         0.76462
C         54.97036        54.29150         0.28565
C         53.74497        54.99244         0.04535
C         55.01507        57.04858        -0.33835
C         53.78858        56.36593        -0.26070
C         55.07498        58.40691        -0.99318
C         53.78124        59.19385        -0.90505
C         55.07849        61.40772        -1.04165
C         53.83234        60.63756        -1.26738
C         55.09771        62.78188        -1.17679
C         53.81770        63.52331        -1.38968
C         55.10642        65.71419        -0.94181
C         53.83347        65.03456        -1.25877
C         55.07410        67.07884        -0.67175
C         53.84078        67.81803        -0.66607
C         55.07806        69.95146        -0.59624
C         53.86685        69.26767        -0.62465
C         55.10023        71.42019        -0.95501
C         53.87290        72.14628        -0.40218
C         55.11327        74.29000        -0.53702
C         53.81121        73.61270        -0.87065
C         56.18681        50.72776         0.66622
C         57.41409        52.87963         0.74276
C         56.21831        52.17063         0.62940
C         57.42991        54.36759         0.90594
C         56.18860        55.03348         0.36441
C         57.45888        57.18350         0.36019
C         56.20736        56.39246         0.04812
C         57.50004        58.55394        -0.28357
C         56.31907        59.19602        -0.65143
C         57.62951        61.36677        -1.10061
C         56.33446        60.61959        -1.06014
C         57.59112        62.83886        -0.89639
C         56.33966        63.54222        -1.04802
C         57.57388        65.68083        -0.74168
C         56.32864        64.95108        -0.92843
C         57.56788        67.05315        -0.59394
C         56.31361        67.78340        -0.21336
C         57.52673        69.96933        -0.50136
C         56.33778        69.26960        -0.49936
C         57.57067        71.43270        -0.48697
C         56.36044        72.14688        -0.56865
C         57.55719        74.25028        -0.17156
C         56.32658        73.57922        -0.43816
C         58.67760        55.01288         0.37252
C         59.94684        57.06899        -0.04434
C         58.72131        56.36924         0.14085
C         59.98425        58.47593        -0.14752
C         58.76167        59.19323        -0.36403
C         59.98869        61.30712        -0.11157
C         58.93011        60.58919        -0.91850
C         59.96604        62.79893        -0.08376
C         58.76381        63.51869        -0.56056
C         60.04962        65.59828        -0.38267
C         58.82060        64.94539        -0.57162
C         60.12303        67.06645        -0.73170
C         58.84335        67.76658        -0.24758
C         59.97617        69.98117         0.05772
C         58.84188        69.24781        -0.67835
C         60.12078        71.42377        -0.42244
C         58.79263        72.13429        -0.30899
C         60.00135        74.21975         0.22942
C         58.78331        73.54931        -0.10127
C         61.23407        59.18772        -0.08834
C         62.46250        61.33720         0.18112
C         61.28539        60.58343        -0.02101
C         62.47594        62.75462         0.18395
C         61.25230        63.50977        -0.00058
C         62.57909        65.62709        -0.33343
C         61.26472        64.88834        -0.17030
C         62.51129        67.08856         0.06318
C         61.32097        67.80400        -0.15551
C         62.43464        69.90006         0.44933
C         61.27746        69.20054         0.05127
C         62.40023        71.34618         0.62905
C         61.25476        72.09622         0.30646
C         62.35879        74.16244         1.00666
C         61.20621        73.51233         0.50515
C         63.67691        63.47862         0.39019
C         64.86035        65.59525         0.71898
C         63.73594        64.88582         0.29954
C         64.87930        67.02395         0.80629
C         63.66516        67.76243         0.51442
C         64.79867        69.86391         1.16658
C         63.63542        69.17648         0.70318
C         64.75965        71.27568         1.37634
C         63.56428        72.01280         1.11027
C         64.70576        74.08954         1.77200
C         63.54026        73.43891         1.29737
C         66.00911        67.71238         1.24842
C         67.14010        69.81525         1.89709
C         66.00091        69.12850         1.43523
C         67.12071        71.21610         2.10426
C         65.92096        71.95165         1.84220
C         67.06350        74.02215         2.51749
C         65.89009        73.37118         2.04740
C         68.26678        71.91481         2.57185
C         68.22555        73.29461         2.77198
O         53.81018        64.39388        -2.57427
O         38.07175        67.37887         1.87686
O         43.63558        69.63287         1.75997
O         48.69555        68.28346        -1.87446
O         35.02559        66.15928         1.61879
O         57.01769        60.91763        -2.36753
O         41.74508        43.74624        -1.68051
O         42.03449        65.22787        -1.24241
O         49.55900        54.36195        -2.05906
O         48.31678        44.19705        -1.91645
O         59.59634        61.95964         1.11825
O         49.38013        45.85971         1.39528
O         29.76093        61.02696         1.45164
O         33.41163        67.42087        -1.92676
O         53.24868        60.96874        -2.58148
O         39.37118        61.08108         2.00422
O         48.54515        71.66913         1.40381
O         47.33386        63.16357         1.90640
O         50.27331        61.09584        -2.19539
O         39.17855        48.00106        -1.48659
O         45.91499        56.51723        -2.05717
H         46.59969        56.05357        -2.58520
O         44.92244        39.63994        -2.19335
H         44.07648        40.08936        -2.44729
O         57.43040        54.65994         2.38661
H         56.72359        54.10893         2.78780
O         46.60645        69.63705         1.66706
H         47.29331        70.34126         1.76289
O         50.47975        49.86938        -1.86539
H         50.40971        50.77556        -2.23634
O         31.81137        72.16277        -1.99244
H         31.86435        71.24101        -2.32404
O         46.24596        65.46465         2.01064
H         46.76273        64.86341         2.59681
O         36.92304        48.00485         2.65703
H         37.00236        48.97347         2.79443
O         41.55048        46.15000         1.38331
H         42.32719        46.70100         1.66993
O         35.52906        54.12081        -0.68001
H         34.79278        53.61459        -1.08578
O         62.82866        65.63066        -1.77795
H         62.05136        66.07855        -2.19543
O         26.73787        69.26706         1.85568
H         26.73165        70.21518         2.10807
O         35.66229        66.18646        -1.63423
H         34.81888        66.12255        -2.15149
O         51.68972        56.26164        -2.42572
H         51.02147        55.66648        -2.83571
O         48.25678        60.82549         1.94601
H         47.78028        61.42751         2.56438
O         53.65525        50.87856        -1.24044
H         53.67415        49.98323        -1.63926
O         55.03829        71.44336        -2.42787
H         55.79897        70.92090        -2.76130
O         38.13668        61.07857        -1.46099
H         37.41620        61.55721        -1.93814
O         36.51192        54.84303         2.77545
H         37.33761        55.28759         3.08460
O         44.99726        69.52738        -1.66359
H         45.83335        69.75970        -2.12379
O         53.62343        73.65947        -2.32624
H         54.26664        73.01885        -2.72292
O         50.64146        65.82994         1.52682
H         49.93376        66.39417         1.92731
O         38.98079        56.28675         2.69687
H         39.06488        57.22087         2.98739
O         35.63986        62.63120        -1.81737
H         34.75875        62.50454        -2.25118
O         44.34229        38.20394         2.01940
H         44.36534        37.35431         2.50901
O         35.19410        71.03309         2.21747
H         34.95259        71.90570         2.61723
O         53.66568        52.07779         2.22997
H         53.35600        52.94370         2.56929
O         38.03147        69.91380        -1.31893
H         37.43645        70.59506        -1.70258
O         48.20772        67.43566         1.68933
H         47.43823        67.21010         2.26389
O         60.51167        71.45054        -1.84493
H         60.58290        72.39258        -2.11004
O         48.10562        71.83082        -1.99042
H         48.83278        71.24432        -2.28923
O         56.24816        67.71699         1.29176
H         55.93037        66.81797         1.52695
O         52.03955        57.20343         1.08799
H         52.73297        57.66391         1.60517
O         43.71295        42.14478         1.18827
H         44.54040        42.53735         1.53801
O         59.53066        60.45209        -2.23770
H         58.78549        60.29643        -2.86476
O         52.40871        49.90219         2.10845
H         53.30785        49.69355         2.44005
O         59.60502        70.15039         1.44621
H         59.48438        69.24139         1.81963
O         33.91502        73.44889         2.29522
H         33.01665        73.13701         2.53928
O         35.18468        52.65353         2.67830
H         35.03231        51.72656         2.95459
O         58.92621        67.67432         1.21115
H         57.99393        67.74455         1.55380
O         60.29528        67.03556        -2.17506
H         59.95554        67.89559        -2.53559
O         55.22825        58.11829        -2.42865
H         55.08746        58.95611        -2.92199
O         31.63522        58.87998        -1.65168
H         32.55972        59.04103        -1.93893
O         42.52682        41.11097        -2.12128
H         42.29224        41.99502        -2.49038
O         26.64754        71.95705        -2.07373
H         27.40723        72.48861        -2.39466
O         33.89916        56.50149         2.67433
H         33.93792        57.46160         2.86941
O         41.35922        50.79222        -2.08975
H         40.50226        51.19425        -2.34747
O         44.32536        59.00807         2.44609
H         43.61364        59.49080         2.91882
O         51.15634        72.34914        -2.29514
H         51.94825        72.87160        -2.59480
O         49.59736        53.22726         1.37631
H         49.63880        52.41770         1.92929
O         54.00640        72.21457         1.04178
H         54.06023        71.29830         1.38743
O         32.88207        62.53957        -2.08854
H         32.05069        62.10036        -2.37162
O         59.04803        69.29001        -2.12200
H         59.48449        70.15282        -2.34450
O         43.80376        47.67993         1.68729
H         44.63920        47.26004         1.98602
O         40.29599        70.02967         2.48025
H         41.23877        70.13101         2.73732
O         49.09603        41.81836        -2.42311
H         48.60569        42.55393        -2.86086
O         45.58430        65.29094        -1.55536
H         44.79652        65.55405        -2.07732
O         47.54022        52.62925        -2.40870
H         48.32569        53.14174        -2.72103
O         44.35566        56.14572         2.11597
H         44.42734        57.06264         2.48337
O         57.39087        57.44034         1.79912
H         57.46196        56.55843         2.24743
H         22.95639        75.22946        -0.19757
H         25.42360        75.24461        -0.08132
H         27.90050        75.25792        -0.09667
H         30.31262        75.28521         0.00675
H         32.66442        75.24492         0.64775
H         35.25307        75.25189         0.32691
H         37.70662        75.27645         0.14280
H         40.19212        75.31204         0.07145
H         42.66756        75.32236        -0.02320
H         45.19823        75.29459        -0.01717
H         47.63305        75.25657        -0.27404
H         50.11145        75.37145        -0.07290
H         52.62545        75.32633         0.02221
H         55.13040        75.38592        -0.43098
H         57.55069        75.33955        -0.01698
H         59.97673        75.30679         0.39539
H         62.33975        75.25012         1.16924
H         64.68876        75.17927         1.92394
H         67.04677        75.10970         2.67787
H         22.01789        69.33621         0.07826
H         20.77542        71.50120         0.02347
H         20.80393        73.98481        -0.10032
H         24.50112        65.07928        -0.02638
H         23.28103        67.20377         0.16318
H         26.91102        60.81069        -0.26507
H         25.71602        62.94648        -0.11828
H         29.37827        56.44047         0.54327
H         28.14953        58.53859         0.26633
H         31.89651        52.21839         0.36342
H         30.64148        54.31434         0.61530
H         34.36728        47.89382         0.99465
H         33.10321        50.02552         0.46570
H         36.91163        43.68061         1.42456
H         35.71242        45.77087         1.43284
H         39.50773        39.37081         1.30922
H         38.22458        41.49751         1.38103
H         41.88397        35.11634         0.86369
H         40.63208        37.25342         0.98386
H         45.29381        31.78137         0.57631
H         43.15717        33.01270         0.88724
H         47.41218        33.00017         0.11943
H         48.64364        35.13425        -0.09949
H         49.86069        37.28237        -0.23398
H         51.02730        39.39871         0.01556
H         52.25554        41.50563         0.05278
H         53.52457        43.68519         0.07847
H         54.75842        45.89067         0.18263
H         55.92338        48.02887         0.59770
H         57.13803        50.19338         0.81441
H         58.35919        52.33106         0.87176
H         59.59131        54.40547         0.27979
H         60.89197        56.50496        -0.01677
H         62.16362        58.60555         0.00454
H         63.41982        60.80568         0.29510
H         64.58154        62.92775         0.69251
H         65.74110        65.03980         1.07847
H         66.92993        67.15422         1.47502
H         68.06276        69.25323         2.10527
H         69.19079        71.35517         2.77624
H         69.12258        73.81622         3.13471
