         630
 CSIRO Nanostructure Databank - Neutral Graphene Oxide Data Set
C         23.35025        27.52188         2.65064
C         23.25600        28.85928         2.44205
C         23.17019        31.78693         1.87901
C         23.09073        33.11185         1.47160
C         22.92898        36.00758         0.79659
C         22.93763        37.34886         0.57404
C         22.91468        40.23641        -0.09055
C         22.93701        41.61538        -0.33474
C         22.89802        44.56455        -0.57168
C         22.91895        45.91029        -0.46566
C         25.79546        24.67067         2.59355
C         24.64629        25.38192         2.71962
C         25.79586        27.53654         2.49137
C         24.62401        26.83193         2.70153
C         25.79712        29.00313         2.39071
C         24.45089        29.72040         2.40917
C         25.56894        31.74857         1.40332
C         24.39522        31.09857         1.85531
C         25.48242        33.11099         0.95469
C         24.22690        33.78353         0.99819
C         25.38377        35.91471         0.15445
C         24.10151        35.16948         0.48560
C         25.38126        37.39003         0.13554
C         24.12715        38.09075         0.22897
C         25.39803        40.25529         0.28580
C         24.09311        39.50518         0.10645
C         25.36455        41.71051        -0.14233
C         24.13318        42.35130        -0.39267
C         25.40952        44.53630        -0.49237
C         24.15080        43.78387        -0.88159
C         25.38149        45.95618        -0.53245
C         24.15920        46.65885        -0.51023
C         25.27369        48.81046        -0.16169
C         24.12980        48.07033        -0.28953
C         28.45292        23.22782         2.46116
C         28.34258        24.59719         2.16838
C         27.10952        25.33283         2.57630
C         28.22121        27.53276         1.80197
C         27.09314        26.84800         2.44564
C         28.13866        28.90712         1.50916
C         26.95001        29.67883         1.76794
C         28.01518        31.68128         0.87958
C         26.84600        31.02737         1.36098
C         27.92275        33.05150         0.24561
C         26.67029        33.82564         0.54448
C         27.87076        35.94893         0.04480
C         26.66672        35.19972         0.28322
C         27.83860        37.35918        -0.13925
C         26.58827        38.05700        -0.06522
C         27.85905        40.22441        -0.18045
C         26.54561        39.52819        -0.40869
C         27.82299        41.66515         0.14126
C         26.58179        42.41965        -0.12778
C         27.87279        44.58123        -0.09110
C         26.61429        43.84698        -0.26032
C         27.89541        46.00232        -0.20092
C         26.65375        46.69574        -0.55573
C         27.80568        48.97857         0.05029
C         26.58274        48.23150        -0.43984
C         27.95003        50.31523        -0.64216
C         30.73917        23.19150         1.63694
C         29.62126        22.53088         2.16884
C         30.67056        24.59972         1.42243
C         29.45271        25.28982         1.64940
C         30.61454        27.46401         1.00437
C         29.31351        26.71213         1.15662
C         30.54789        28.85405         0.81863
C         29.30705        29.57967         1.00432
C         30.48953        31.72402         0.59626
C         29.22886        30.97632         0.78888
C         30.46591        33.21914         0.42411
C         29.16934        33.89631         0.32192
C         30.35010        36.00475        -0.22450
C         29.13624        35.26130         0.04476
C         30.30964        37.40785        -0.39336
C         29.06303        38.09567        -0.32845
C         30.29316        40.31858        -0.69055
C         29.04351        39.54178        -0.32064
C         30.39142        41.72103        -0.13483
C         29.13897        42.42547         0.23816
C         30.33615        44.61360         0.27160
C         29.08035        43.88693         0.10678
C         30.37272        46.07087         0.11049
C         29.10581        46.77464        -0.02701
C         30.31476        48.94838         0.16068
C         29.07903        48.17139        -0.03253
C         30.37047        50.35062        -0.27273
C         29.14432        50.94797        -0.74271
C         33.00481        20.25791         0.80347
C         31.88148        21.00266         1.08218
C         33.07375        23.11507         0.84354
C         31.92344        22.44338         1.19095
C         33.18270        24.58943         1.21475
C         31.86515        25.33364         1.04944
C         33.10026        27.44834         0.58466
C         31.84171        26.71604         0.89867
C         33.02263        28.89457         0.24284
C         31.71992        29.59795         0.38783
C         32.91127        31.71201        -0.13518
C         31.68749        30.95643         0.22388
C         32.75314        33.11559        -0.62025
C         31.62029        33.90878        -0.17673
C         32.79563        35.99410        -0.75968
C         31.57738        35.28124        -0.42358
C         32.78696        37.42475        -0.71686
C         31.56001        38.14290        -0.56704
C         32.80123        40.26623        -0.70443
C         31.57897        39.54971        -0.57151
C         32.81985        41.72930        -0.61977
C         31.58444        42.39687        -0.23828
C         32.86620        44.59950        -0.17840
C         31.65804        43.82821         0.14375
C         32.85152        46.00757        -0.07632
C         31.60298        46.71888         0.11000
C         32.87970        48.90967        -0.07344
C         31.64691        48.18319         0.24084
C         32.85659        50.31702        -0.17645
C         31.60237        51.03341        -0.27680
C         32.84654        53.13329        -0.48890
C         31.65810        52.45626        -0.45128
C         35.48906        18.72579         0.33845
C         35.44366        20.16899         0.24049
C         34.23816        20.87640         0.45393
C         35.51404        23.00275         0.13907
C         34.16675        22.34802         0.13072
C         35.55088        24.47416         0.12754
C         34.38969        25.29186         0.57710
C         35.33385        27.32526        -0.53766
C         34.28400        26.69697         0.09552
C         35.34905        28.76440        -0.81425
C         34.00680        29.47361        -0.76030
C         35.20522        31.66765        -1.32498
C         34.13293        30.97090        -0.55148
C         35.28219        33.13700        -1.18389
C         34.01016        33.85301        -1.12411
C         35.25765        35.99190        -1.04597
C         34.00410        35.30817        -0.98502
C         35.24903        37.40676        -1.02540
C         34.01328        38.13191        -0.88877
C         35.24375        40.29069        -1.26826
C         33.99917        39.55305        -0.87505
C         35.28060        41.75556        -0.88130
C         34.01452        42.45002        -0.72097
C         35.25869        44.62135        -0.65472
C         34.05398        43.90118        -0.53752
C         35.28981        46.02953        -0.46560
C         34.07419        46.73802        -0.23636
C         35.32290        48.87851        -0.30926
C         34.09010        48.17481        -0.21487
C         35.32740        50.30744        -0.29836
C         34.09511        51.03075        -0.29523
C         35.34796        53.15666        -0.41356
C         34.10354        52.45023        -0.41278
C         35.40557        54.58015        -0.67511
C         37.85401        18.68878        -0.33354
C         36.60564        18.01719         0.03560
C         37.88855        20.15548        -0.25129
C         36.67207        20.85564        -0.07079
C         37.90423        23.00818        -0.48861
C         36.66979        22.30317        -0.14585
C         37.87797        24.36280        -0.79599
C         36.57469        25.07284        -0.76929
C         37.76184        27.22923        -1.40185
C         36.48349        26.52883        -1.05377
C         37.75711        28.72050        -1.51320
C         36.47345        29.43274        -1.24366
C         37.72114        31.67425        -1.75939
C         36.44178        30.88443        -1.60502
C         37.74651        33.11039        -1.41086
C         36.49945        33.82190        -1.21590
C         37.74102        35.94935        -1.10840
C         36.49600        35.25682        -1.12439
C         37.74844        37.37178        -1.03846
C         36.50157        38.12275        -1.03729
C         37.74610        40.23757        -0.77317
C         36.48847        39.50894        -0.97841
C         37.75696        41.72662        -0.72432
C         36.46940        42.44044        -0.86259
C         37.79875        44.60352        -0.74665
C         36.50540        43.92182        -1.13448
C         37.78722        46.01873        -0.55237
C         36.54467        46.74186        -0.48885
C         37.79845        48.87822        -0.32508
C         36.55749        48.15543        -0.37304
C         37.80723        50.29649        -0.26140
C         36.56312        51.01933        -0.28409
C         37.81750        53.16445        -0.02269
C         36.55629        52.43738        -0.26582
C         37.81599        54.68738        -0.18248
C         36.56366        55.28710        -0.65874
C         40.40334        15.98587         0.73468
C         39.25749        16.53429         0.25497
C         40.42719        18.74575        -0.01151
C         39.22735        17.92501        -0.20777
C         40.39003        20.14607        -0.23019
C         39.13807        20.84331        -0.35220
C         40.36646        22.96161        -0.62451
C         39.15566        22.26952        -0.49190
C         40.38398        24.37939        -1.13445
C         39.07981        25.13850        -0.98247
C         40.24028        27.33606        -0.90511
C         39.03045        26.50926        -1.12936
C         40.23992        28.79959        -1.22169
C         39.04208        29.46563        -1.42087
C         40.26746        31.68158        -1.35762
C         39.05235        30.91648        -1.67945
C         40.24148        33.08655        -1.30620
C         38.97523        33.79873        -1.32650
C         40.21725        35.93714        -1.05869
C         38.98164        35.23023        -1.16323
C         40.20635        37.35542        -0.97121
C         38.98940        38.04546        -1.00661
C         40.26065        40.29213        -1.20670
C         38.99029        39.51919        -1.15314
C         40.22314        41.76546        -1.02937
C         39.04138        42.45003        -0.92341
C         40.25889        44.58705        -0.60614
C         39.00711        43.90148        -0.79186
C         40.24539        45.99294        -0.36829
C         39.01638        46.71674        -0.39349
C         40.26097        48.84960        -0.24170
C         39.03231        48.15301        -0.30524
C         40.28009        50.28436        -0.23592
C         39.05276        51.00684        -0.22289
C         40.32036        53.11983        -0.11338
C         39.09874        52.43020        -0.14097
C         40.32992        54.60048         0.00888
C         39.12032        55.37591        -0.33517
C         40.47269        57.38513        -0.75191
C         39.22083        56.71722        -0.62637
C         42.84938        16.11215         1.12008
C         41.63788        16.73001         0.75668
C         42.86899        18.83712         0.38492
C         41.63896        18.10822         0.38614
C         42.85801        20.22991         0.05392
C         41.62117        20.88880        -0.19893
C         42.84092        23.03135        -0.44662
C         41.61486        22.29574        -0.44329
C         42.81176        24.48418        -0.51780
C         41.60137        25.13624        -0.69389
C         42.79303        27.31585        -0.91094
C         41.51342        26.61218        -0.62426
C         42.75018        28.78571        -1.18105
C         41.47572        29.53198        -1.19252
C         42.70939        31.69222        -1.03550
C         41.48837        30.94952        -1.18931
C         42.72600        33.09561        -1.07310
C         41.47872        33.82085        -1.15449
C         42.72278        35.97297        -1.01073
C         41.47581        35.22778        -1.06853
C         42.73273        37.36956        -0.88880
C         41.45935        38.10848        -0.58357
C         42.71117        40.26537        -0.81622
C         41.51586        39.56628        -0.97409
C         42.74835        41.70004        -0.80853
C         41.52896        42.48838        -1.23537
C         42.70507        44.54114        -0.39250
C         41.48944        43.88822        -0.68184
C         42.67729        45.93034        -0.07878
C         41.47930        46.66826        -0.13181
C         42.70680        48.79932        -0.09603
C         41.49709        48.11585        -0.10702
C         42.74768        50.22406        -0.44509
C         41.50896        51.00177        -0.28274
C         42.85131        53.10484        -0.25293
C         41.55925        52.40810        -0.22011
C         42.90830        54.52827        -0.28827
C         41.67323        55.31897        -0.12479
C         42.94603        57.33701        -0.81974
C         41.67157        56.71878        -0.58284
C         44.04774        16.81248         1.07738
C         45.34024        18.90847         0.61188
C         44.09014        18.17441         0.69893
C         45.32286        20.29519         0.27101
C         44.08393        20.96332         0.02029
C         45.31370        23.10671        -0.21405
C         44.07330        22.36723        -0.23850
C         45.28261        24.55673        -0.32790
C         44.06356        25.21004        -0.40025
C         45.28548        27.39272        -0.76401
C         44.03242        26.71364        -0.28101
C         45.22202        28.79088        -0.99469
C         44.01602        29.49841        -1.01966
C         45.24980        31.71751        -0.86079
C         43.96412        30.95202        -0.82349
C         45.21927        33.17271        -1.04127
C         43.97776        33.83789        -1.05058
C         45.20760        35.97838        -1.06943
C         43.97852        35.26831        -1.07161
C         45.20368        37.40972        -0.93755
C         43.95606        38.10132        -0.82300
C         45.16800        40.22078        -0.51071
C         43.95071        39.52149        -0.67897
C         45.17661        41.64556        -0.35050
C         43.94025        42.38100        -0.50197
C         45.17881        44.48372        -0.07929
C         43.95064        43.80878        -0.34823
C         45.20136        45.88690         0.14738
C         43.92519        46.59204         0.29479
C         45.25184        48.79439         0.12313
C         43.94795        48.12471         0.26011
C         45.30161        50.18229        -0.07205
C         44.07659        50.93277        -0.42010
C         45.32996        53.06277        -0.22616
C         44.07171        52.39532        -0.27820
C         45.36726        54.48203        -0.34463
C         44.13105        55.21121        -0.44306
C         44.11184        56.63562        -0.68983
C         47.77896        18.99105         0.70219
C         46.58466        18.29260         0.85144
C         47.79166        20.35250         0.35413
C         46.54817        21.02896         0.19713
C         47.79417        23.22921         0.23487
C         46.52344        22.44495        -0.01822
C         47.77046        24.62812        -0.32503
C         46.54053        25.29592        -0.42617
C         47.76105        27.40375        -0.91811
C         46.51908        26.70178        -0.73127
C         47.76770        28.81042        -1.14945
C         46.48002        29.50395        -1.30169
C         47.74886        31.72159        -1.16226
C         46.48010        31.00145        -1.29303
C         47.71404        33.13363        -1.06542
C         46.46096        33.85648        -1.07585
C         47.70744        35.97236        -1.03755
C         46.46792        35.27883        -1.08331
C         47.71839        37.46602        -1.23953
C         46.41935        38.12634        -0.84087
C         47.63965        40.20818        -0.30266
C         46.40632        39.50355        -0.54560
C         47.62862        41.58623        -0.09306
C         46.40014        42.31959        -0.13044
C         47.59792        44.44770         0.34830
C         46.41061        43.75832         0.02948
C         47.63443        45.85887         0.43161
C         46.41188        46.59336         0.31371
C         47.68408        48.72192         0.39678
C         46.44149        48.03954         0.31331
C         47.72275        50.14373         0.28686
C         46.52895        50.87931         0.03852
C         47.79173        52.99759         0.00966
C         46.55528        52.31724        -0.07965
C         47.79875        54.41417        -0.14318
C         46.63600        55.12680        -0.32999
C         50.24696        20.34795        -0.13071
C         49.03962        21.06187         0.05826
C         50.23085        23.14046        -0.48501
C         49.04188        22.45812        -0.11764
C         50.24119        24.57770        -0.66743
C         48.99706        25.29740        -0.59407
C         50.22862        27.40641        -1.03863
C         48.99785        26.70112        -0.85658
C         50.21722        28.82874        -1.18697
C         48.96172        29.53858        -1.22875
C         50.17569        31.71706        -1.20377
C         48.95974        30.99757        -1.23748
C         50.17398        33.12134        -1.03882
C         48.94085        33.84377        -0.99127
C         50.18236        35.97705        -0.79122
C         48.93025        35.27570        -0.94124
C         50.19331        37.39367        -0.62564
C         48.93348        38.13829        -0.64863
C         50.11593        40.06162         0.38281
C         48.87690        39.45052        -0.24981
C         50.12307        41.57362         0.43838
C         48.93190        42.35923        -0.05737
C         50.09788        44.41283         0.80585
C         48.79874        43.63934         0.76054
C         50.09529        45.83097         0.86456
C         48.87362        46.56002         0.65648
C         50.12267        48.67507         0.83151
C         48.89576        47.97679         0.62219
C         50.14911        50.10982         0.76316
C         48.96615        50.84236         0.43464
C         50.25196        52.90986         0.48103
C         49.00855        52.25700         0.29333
C         51.40468        21.00112        -0.50465
C         52.61497        23.07975        -1.17808
C         51.42119        22.40029        -0.71337
C         52.64667        24.50588        -1.24922
C         51.43717        25.24969        -0.99520
C         52.67615        27.39133        -1.34856
C         51.46577        26.69059        -1.13650
C         52.67254        28.81740        -1.27439
C         51.43777        29.52547        -1.25571
C         52.66590        31.69349        -0.96800
C         51.45890        31.00745        -1.53777
C         52.63688        33.09240        -0.75583
C         51.41679        33.82975        -0.87714
C         52.63469        35.94233        -0.46863
C         51.40806        35.24777        -0.72103
C         52.64136        37.37006        -0.36472
C         51.40570        38.07858        -0.45172
C         52.61557        40.27463         0.03700
C         51.33203        39.59324        -0.41973
C         52.52670        41.44849         1.01654
C         51.26500        42.24155         0.77713
C         52.52525        44.38509         1.18882
C         51.29884        43.70069         0.90659
C         52.53025        45.79569         1.37769
C         51.31409        46.52427         1.13153
C         52.48655        48.64995         1.55271
C         51.31147        47.95133         1.12727
C         52.48433        50.07735         1.58516
C         51.34978        50.80724         1.05208
C         51.37892        52.21120         0.87357
C         54.82245        22.95991        -2.17009
C         53.72018        22.32533        -1.63072
C         54.85430        24.36365        -2.18661
C         53.83168        25.17184        -1.68466
C         55.22268        27.34270        -1.23758
C         53.94349        26.69089        -1.81577
C         55.23223        28.87498        -1.22241
C         53.88996        29.55297        -1.09470
C         55.03398        31.61885        -0.29934
C         53.85417        30.94032        -0.80451
C         55.02818        33.04551        -0.14237
C         53.84298        33.78577        -0.39722
C         55.05278        35.88622         0.07109
C         53.84474        35.20719        -0.27630
C         55.05863        37.31917         0.17187
C         53.87427        38.04239        -0.09927
C         55.06885        40.13999         0.68034
C         53.89043        39.50218         0.07361
C         55.02200        41.57373         0.92834
C         53.79626        42.26725         1.00771
C         54.99179        44.37719         1.47329
C         53.77206        43.66383         1.23786
C         54.96275        45.75408         1.88207
C         53.72280        46.47235         1.82869
C         54.48046        48.64801         2.88703
C         53.59512        47.90743         2.07641
C         54.48672        50.04684         2.94458
C         53.53238        50.76246         2.23423
C         58.00217        24.82317        -1.50792
C         56.82307        25.46370        -1.75961
C         57.68902        27.53854        -0.74067
C         56.45844        26.74732        -1.17412
C         57.34737        28.74250         0.09393
C         56.24521        29.46126        -0.25986
C         57.33021        31.53832         0.58137
C         56.15667        30.87407         0.07773
C         57.38054        32.96452         0.60244
C         56.21575        33.72097         0.26370
C         57.44833        35.82744         0.70588
C         56.23368        35.14694         0.35194
C         57.46696        37.25695         0.78817
C         56.26083        37.99890         0.57222
C         57.46297        40.14008         1.31652
C         56.23608        39.40922         0.81532
C         57.49949        41.53864         0.69151
C         56.23568        42.29750         1.02791
C         57.50045        44.37858         1.37454
C         56.23536        43.66951         1.30676
C         57.48872        45.73801         1.79441
C         56.25974        46.35924         2.20900
C         57.63231        48.20265         3.15383
C         56.41587        47.50715         3.00342
C         58.94002        25.39002        -0.57593
C         59.74495        27.29603         0.74149
C         58.78964        26.67967        -0.15382
C         59.55104        28.50334         1.31014
C         58.27403        29.28225         1.16405
C         59.62229        31.45065         1.37746
C         58.45580        30.78243         0.99957
C         59.69548        32.84547         1.34747
C         58.58691        33.62747         0.97852
C         59.82638        35.77950         1.25278
C         58.62993        35.08076         0.97903
C         59.86446        37.16513         1.26742
C         58.70100        37.93428         1.05760
C         59.92103        40.10340         1.01931
C         58.75139        39.38164         1.08058
C         59.93386        41.53398         1.08888
C         58.77727        42.27569         1.01199
C         59.94397        44.47091         1.17801
C         58.73668        43.71545         1.15732
C         59.94088        45.79692         1.53729
C         58.73241        46.43154         1.94118
C         58.77667        47.70409         2.56258
O         43.47974        50.49344        -1.70899
O         30.97853        48.68676         1.44868
O         36.08514        25.53198        -2.07053
O         34.03514        31.48123         0.80648
O         44.70042        31.31268         0.43773
O         37.80744        40.92121         0.53635
O         37.70758        27.86800        -2.72720
O         37.72045        54.05214         1.14130
O         40.73923        27.13398         0.50585
O         55.98991        24.94715        -2.77151
O         38.45280        31.32455        -2.96809
O         42.88503        27.74571        -2.28050
O         41.04030        55.10492         1.18662
O         30.74278        32.62012         1.76599
O         53.50056        40.40067        -1.10335
O         25.28620        29.65530         3.61048
O         43.83954        47.38039         1.52850
O         35.57937        25.12219         1.45889
O         27.40168        26.17739         3.73923
O         35.44301        31.14805        -2.67698
O         39.53513        39.90034        -2.46755
O         46.35657        30.27785        -2.56474
O         33.53958        28.49496         1.54325
O         31.09799        44.13830         1.44858
O         33.01260        33.28835        -2.05432
O         38.54593        18.12701        -1.48771
O         26.76570        47.60174        -1.72874
O         24.54471        35.31753        -0.90843
O         28.45221        41.93366         1.44999
O         55.33676        47.97310         3.76823
O         33.76182        22.41313        -1.30767
H         34.37378        21.83262        -1.81016
O         43.90905        27.01095         1.14862
H         44.66273        26.58858         1.61224
O         51.06837        40.05224        -1.77610
H         51.94787        40.09946        -2.22210
O         41.68086        42.63960        -2.69866
H         40.82970        42.97526        -3.05271
O         51.59287        31.12094        -3.01121
H         50.80186        30.69679        -3.40802
O         35.18326        40.37313        -2.75909
H         35.14830        39.45277        -3.09961
O         57.49059        41.33920        -0.75286
H         57.46483        42.21983        -1.18134
O         54.03657        26.98312        -3.25577
H         54.75469        26.40499        -3.60506
O         41.39657        38.14737         0.90383
H         41.43392        37.21930         1.22127
O         58.24995        28.10007        -1.97522
H         57.52657        28.63023        -2.39684
O         50.22056        39.53306         1.72322
H         49.53294        39.95992         2.27477
O         33.39508        29.29685        -2.06416
H         33.98671        29.73464        -2.72370
O         52.46622        40.83138         2.33728
H         52.31739        41.54175         2.99541
O         48.54137        43.19819         2.13418
H         48.36143        43.99521         2.67609
O         57.32708        40.30978         2.75410
H         57.33477        39.42114         3.16652
O         28.81317        26.53809        -0.24267
H         28.86829        27.41364        -0.68439
O         40.52988        24.23803        -2.60305
H         39.71195        23.81620        -2.94376
O         27.82683        32.72651        -1.21380
H         27.45570        33.51552        -1.66618
O         47.81490        37.65041        -2.70139
H         47.91655        38.61164        -2.86884
O         57.57241        29.11943         2.44606
H         56.76734        29.67875         2.41357
O         26.27781        39.60537        -1.84090
H         26.99794        39.13714        -2.31249
O         49.23780        42.72201        -1.43183
H         49.64250        41.93638        -1.86393
O         27.56435        49.23808         1.46876
H         28.40143        49.56820         1.86068
O         47.84130        23.41579         1.70139
H         47.88515        22.52210         2.10424
O         25.69332        40.21922         1.70967
H         25.04360        40.78613         2.17423
O         55.69754        29.20663        -2.58662
H         55.07102        28.75025        -3.20055
O         36.47836        44.01992        -2.61049
H         35.73371        43.46543        -2.93015
O         24.20660        43.68352        -2.35347
H         24.27808        44.59771        -2.70273
O         30.12762        40.52942        -2.15427
H         30.30341        39.67134        -2.59663
O         33.39173        24.59965         2.65980
H         34.36482        24.67837         2.80576
H         22.43586        26.91152         2.69218
H         22.26707        29.30810         2.27186
H         22.26410        31.28733         2.24561
H         22.11841        33.62008         1.50568
H         22.01791        35.53938         1.19437
H         22.01887        37.91673         0.78015
H         21.94979        39.71361        -0.15810
H         21.98111        42.10989        -0.55294
H         21.93269        44.04001        -0.55326
H         21.98411        46.47069        -0.31316
H         25.75076        23.57857         2.47233
H         23.68022        24.85643         2.75120
H         25.22963        49.83515         0.23385
H         23.15309        48.54106        -0.10261
H         27.60479        22.69380         2.91109
H         27.03833        50.80429        -1.01573
H         29.66039        21.45534         2.38601
H         29.18517        51.93928        -1.21721
H         32.93558        19.16292         0.86867
H         30.94762        20.47258         1.31192
H         32.82556        54.22805        -0.56978
H         30.72039        53.02604        -0.50199
H         34.57447        18.17948         0.60522
H         34.48817        55.09268        -0.99530
H         36.57150        16.91919         0.03156
H         36.56567        56.33243        -0.99868
H         40.42021        14.93532         1.06004
H         38.35007        15.92239         0.16091
H         40.47850        58.44583        -1.04106
H         38.31006        57.30398        -0.81199
H         42.84446        15.05378         1.41787
H         42.97077        58.40486        -1.08220
H         44.97281        16.28566         1.34633
H         45.06300        57.16156        -0.84656
H         48.72246        18.45419         0.86859
H         46.63329        17.23246         1.13277
H         48.74834        54.96423        -0.10743
H         46.69857        56.21830        -0.43205
H         50.27208        19.25839         0.00132
H         50.33087        53.99717         0.35111
H         52.31792        20.40710        -0.63692
H         52.31230        52.76663         1.03690
H         55.66762        22.39209        -2.57848
H         53.69711        21.22901        -1.60871
H         55.22582        50.55941         3.57341
H         53.53837        51.85902         2.28028
H         58.23596        23.88090        -2.01962
H         57.65281        49.12208         3.75304
H         59.78946        24.78357        -0.22967
H         60.66036        26.72746         0.97033
H         60.29677        28.88523         2.02237
H         60.50599        30.88357         1.69986
H         60.63859        33.32265         1.64486
H         60.75538        35.22844         1.44915
H         60.81840        37.66653         1.48002
H         60.88976        39.59000         0.93259
H         60.90900        42.02562         1.21660
H         60.89486        43.98309         0.92537
H         60.88202        46.36295         1.58719
H         59.73707        48.22952         2.65823
