         264
 CSIRO Nanostructure Databank - Neutral Graphene Oxide Data Set
C        -11.32711         0.57022         0.33321
C        -10.10216         1.33304         0.26162
C         -8.94540         0.59182        -0.36537
C         -7.62331         1.32407        -0.28016
C         -6.45046         0.55237        -0.87003
C         -5.08488         1.25442        -0.81633
C         -3.78967         0.49172        -0.74866
C         -2.47463         1.22571        -0.91060
C         -1.17774         0.47402        -0.85491
C          0.15581         1.26097        -0.92270
C          1.34522         0.62156        -0.24266
C          2.52174         1.29040        -0.39165
C          3.79188         0.53841        -0.28531
C          5.09176         1.28659        -0.40272
C          6.26881         0.71266         0.34281
C          7.53662         1.48675         0.34124
C          8.81373         0.75927         0.07654
C         10.09450         1.56649         0.17920
C         11.30574         0.80974         0.56690
C        -10.00654         2.67029         0.56008
C         -8.75659         3.39730         0.44889
C         -7.55910         2.63246         0.09007
C         -6.25364         3.32416         0.23473
C         -4.99676         2.62134        -0.20409
C         -3.75775         3.43009        -0.45522
C         -2.51106         2.73637        -0.90833
C         -1.16776         3.45780        -1.05508
C          0.00398         2.71674        -0.38300
C          1.30268         3.47821        -0.67660
C          2.52302         2.67098        -0.96618
C          3.81280         3.39203        -1.26958
C          5.12370         2.70010        -0.93299
C          6.27946         3.59291        -0.53554
C          7.50534         2.96253         0.04207
C          8.79622         3.70881         0.10617
C          9.98467         3.02921         0.37150
C         -8.67059         4.76260         0.63582
C         -7.42099         5.50849         0.54635
C         -6.20616         4.77634         0.39225
C         -4.91101         5.39690         0.74060
C         -3.63713         4.69243         0.35573
C         -2.34790         5.45412         0.25518
C         -1.21514         4.93266        -0.59269
C          0.09609         5.63554        -0.51536
C          1.33511         4.83184        -0.73514
C          2.49763         5.61829        -1.22256
C          3.81965         4.91009        -1.43548
C          5.10298         5.69844        -1.36098
C          6.45386         4.99318        -1.11606
C          7.41826         5.75504        -0.21034
C          8.66859         5.11695         0.10303
C         -7.36624         6.90272         0.63111
C         -6.06410         7.59796         0.32855
C         -4.88082         6.88586         0.97896
C         -3.56154         7.62413         1.03911
C         -2.30350         6.91791         0.62911
C         -1.15766         7.69656        -0.01744
C          0.20198         6.93964         0.31051
C          1.52212         7.73476         0.00013
C          2.44711         7.11209        -1.07631
C          3.72854         7.90128        -1.24496
C          5.11560         7.22564        -1.16364
C          5.77247         7.62956         0.17638
C          7.13006         6.99141         0.29976
C         -6.02632         9.09515         0.49603
C         -4.89269         9.77533         0.71734
C         -3.59429         9.15056         1.17986
C         -2.33682         9.81787         0.66312
C         -1.15505         9.17315         0.35463
C          0.06031         9.86869         0.13658
C          1.27068         9.23949        -0.24907
C          2.38910         9.97865        -0.56225
C          3.69165         9.34227        -0.86635
C          4.92888         9.93972        -0.29516
C          5.87175         9.14762         0.23511
C        -11.36343        -0.78570         0.11594
C        -10.17153        -1.58644        -0.01389
C         -8.85592        -0.85412         0.14724
C         -7.66421        -1.63438        -0.43437
C         -6.37735        -0.82079        -0.19607
C         -5.08170        -1.45672         0.25657
C         -3.76262        -0.89940        -0.22976
C         -2.57577        -1.55798        -0.08567
C         -1.19044        -1.02875        -0.51428
C         -0.08625        -1.40105         0.50269
C          1.21374        -0.65133         0.51210
C          2.49916        -1.27890         1.09121
C          3.73948        -0.83555         0.29793
C          5.02400        -1.50565         0.69409
C          6.31302        -0.77553         0.56265
C          7.59326        -1.51474         0.41934
C          8.84439        -0.74875         0.15316
C         10.18063        -1.41625         0.36786
C         11.33996        -0.53810         0.66624
C        -10.17114        -2.96591        -0.05401
C         -8.94243        -3.72276         0.05110
C         -7.74609        -2.88099         0.43023
C         -6.43576        -3.64629         0.58585
C         -5.13063        -2.90915         0.68075
C         -3.77920        -3.58421         0.96231
C         -2.59127        -3.05131         0.16064
C         -1.33592        -3.60584         0.84263
C         -0.06699        -2.82551         1.01915
C          1.20817        -3.60733         1.32974
C          2.52533        -2.85146         1.30428
C          3.80947        -3.65144         1.24295
C          5.02565        -3.00237         0.63822
C          6.35356        -3.67600         0.61005
C          7.61273        -2.87044         0.55581
C          8.89057        -3.61748         0.75758
C         10.18132        -2.86615         0.78727
C         -8.87691        -5.09511        -0.02806
C         -7.62840        -5.83215        -0.04399
C         -6.33717        -5.02685        -0.07915
C         -5.09853        -5.79852         0.41040
C         -3.81797        -5.11956         0.78420
C         -2.53642        -5.82628         0.43205
C         -1.27115        -5.10367         0.75310
C          0.05791        -5.71766         0.60589
C          1.21136        -5.09007         1.01847
C          2.48089        -5.90035         1.19754
C          3.80715        -5.17319         1.35901
C          5.18199        -5.90860         1.27441
C          6.48648        -5.03113         1.27476
C          7.68084        -5.77888         0.67615
C          8.84210        -5.08285         0.52063
C         -7.56590        -7.17441        -0.30619
C         -6.27831        -7.84440        -0.60277
C         -5.00369        -7.13329        -0.26482
C         -3.76499        -7.96682         0.03869
C         -2.51358        -7.11800         0.01397
C         -1.23413        -7.74319        -0.40267
C          0.05390        -7.00611        -0.12276
C          1.25238        -7.87936         0.02522
C          2.40628        -7.38446         0.83006
C          3.55801        -8.39642         0.88500
C          5.22186        -6.80815         0.02705
C          6.37173        -7.75924         0.00975
C          7.57880        -7.18656         0.31935
C         -6.16880        -9.31891        -0.75268
C         -4.98025        -9.93870        -0.87541
C         -3.66497        -9.17874        -0.90671
C         -2.44603       -10.03552        -0.50914
C         -1.15429        -9.22347        -0.60650
C          0.03192        -9.83314        -0.83721
C          1.32142        -9.03802        -0.97549
C          2.63130        -9.79188        -0.93451
C          3.72843        -9.32245        -0.28480
C          5.06965        -9.83744        -0.55871
C          6.23249        -9.14465        -0.40550
O          6.66243         3.76304        -3.12281
H          5.80710         4.10814        -3.49475
O         -3.56315         9.44109         2.60947
H         -2.98096         8.75833         3.01956
O         -3.50900        -3.21585         2.32038
H         -4.24519        -3.55525         2.87555
O         -5.35225         2.59956         1.19582
O         -5.87553        -0.62169         1.15334
O          2.32330         7.75446         1.15496
O         -6.06201        -4.74425        -1.42574
O         -3.42476         3.40485        -1.87026
O          5.67038        -1.03210         1.89447
O         -1.51041        -4.42718         2.02151
O         -0.74407         5.78892        -1.68764
O          1.36031        -8.48481        -2.31706
H          0.54934        -7.93005        -2.43784
O         -0.55298        -6.92647        -1.44906
O         -8.53949        -0.91598         1.56992
O         -1.85494         0.67642        -2.13088
O          5.50926        -3.61366        -0.59175
O         -9.29673         0.43765        -1.77380
H         -9.18547         1.30524        -2.21543
O          3.35389        -3.07608         2.49425
O          0.39828        -3.01733         2.38373
O          5.46550         1.58952        -1.79291
O         -6.79901         0.41480        -2.26663
H         -5.95611         0.28240        -2.76581
O         -1.35275         7.70182        -1.39135
O         -8.09802        -2.32139         1.76667
O          3.70005         8.91949        -2.29484
O          6.48849         3.61772         0.89738
O          4.12244        -8.64961         1.93137
O          9.47235         1.22166        -1.12504
O         -5.06656         6.00277         2.09304
O          4.43654        -6.65984        -0.89923
O          2.00021         6.50497        -2.30237
O          0.21365         6.61857         1.67294
H          1.08594         6.98844         2.01641
O         -4.67368        -5.79676         1.79247
O          9.61434        -1.29136        -0.97215
O         -7.80620        -1.97868        -1.79873
H         -7.94559        -1.14543        -2.31018
O          3.67123        -0.68592        -1.13690
O         -5.91453        -3.32619         1.87689
O         -5.45368        -7.10362        -1.63234
O          3.05630        -5.61727         2.51591
O         -2.61876         4.57258         1.38385
O         -4.42543         0.87209        -2.04737
O         -0.28857         2.66767         1.01586
H          0.30146         2.02438         1.46650
O          3.05166         2.75876        -2.33166
O         -2.61190         7.11168         2.02851
O          4.51380         5.33263        -2.64918
O          0.15552        -0.42721         1.53649
O         -2.37645       -11.17858        -1.35621
H         -2.44294       -10.85029        -2.27854
O         -3.41345        -8.73440        -2.25255
H         -4.14641        -8.11780        -2.50133
O          7.18245         4.90199        -2.40112
O         -0.88995         3.47246        -2.46351
H         -1.70146         3.77713        -2.92798
O         -3.91752        -8.47805         1.38320
H         -4.05642        -7.70137         1.97790
O          6.77656        -4.75175         2.65727
O          5.95944         7.75962        -2.18919
H          5.45175         7.75467        -3.02905
O          6.80560         1.28522         1.58564
O          1.32554        -8.16941         1.46370
O          2.64857        -0.66378         2.37619
H          3.11325        -1.29913         2.97089
O         -2.67820        -3.64322        -1.15707
H         -2.00187        -3.20698        -1.73192
O          0.55203         1.28757        -2.29818
H         -0.05565         1.89259        -2.78920
O          4.97559         7.12833         1.26719
H          4.03892         7.49463         1.22797
O          9.55201        -3.19476         2.04480
H          7.69883        -4.42772         2.73752
O         -5.80631         7.37448        -1.11204
H         -6.46113         7.89814        -1.62120
O         -0.82928        -1.73079        -1.73200
H         -1.11467        -1.16243        -2.48640
O          5.35003        -6.73004         2.42558
H          4.59212        -6.57363         3.03586
H         12.26089        -1.02675         1.01911
H         12.19667         1.39251         0.84622
H         10.90576         3.60389         0.55548
H          9.51607         5.73927         0.43008
H          7.87610         7.48438         0.94433
H          6.75581         9.59030         0.71989
H          5.00774        11.03645        -0.23711
H          2.30064        11.06484        -0.73617
H          0.10233        10.93445         0.41696
H         -2.31723        10.91717         0.74505
H         -4.92371        10.87596         0.73858
H         -6.95120         9.64633         0.25960
H         -8.28656         7.48865         0.77155
H         -9.58462         5.32999         0.86607
H        -10.89145         3.21493         0.92398
H        -12.26171         1.10716         0.55559
H        -12.33375        -1.30546         0.13561
H        -11.12330        -3.51104        -0.15229
H         -9.80550        -5.66383        -0.19886
H         -8.48783        -7.77249        -0.37733
H         -7.10279        -9.90196        -0.75401
H         -4.94203       -11.03132        -1.00382
H         -2.57389       -10.39539         0.54402
H          0.04586       -10.92105        -1.00723
H          2.75708       -10.56616        -1.70953
H          5.13169       -10.85692        -0.97333
H          7.17556        -9.67106        -0.62490
H          8.51160        -7.76526         0.22356
H          9.74895        -5.58742         0.15326
H         11.12751        -3.42475         0.60176
