         234
 CSIRO Nanostructure Databank - Neutral Graphene Oxide Data Set
C          1.31196         2.14465        -0.67767
C          1.26983         3.51278        -0.77450
C          2.52921         1.41624        -0.74313
C          2.46029         4.27592        -1.16309
C          1.25872         6.49210        -1.06377
C          1.18304         7.81498        -0.78652
C          2.49214         5.74570        -0.90857
C          2.32500         8.49452        -0.14645
C          1.05401        10.76041         0.10626
C          1.09154        12.12043         0.15164
C          2.24864         9.92462         0.32442
C          2.28667        12.88625         0.39363
C          1.14261        15.07510         0.09753
C          1.18940        16.45333        -0.06421
C          2.30544        14.28699         0.32309
C          2.38983        17.19092         0.00811
C          2.46095        18.51674        -0.48124
C          3.76078         2.06662        -0.84586
C          3.78389         3.50256        -1.19044
C          4.99020         1.38872        -0.64566
C          5.06616         4.25614        -1.02356
C          3.66079         6.40465        -0.57036
C          3.65589         7.81851        -0.23157
C          4.98727         5.76212        -0.68893
C          4.80774         8.49180         0.09913
C          3.54762        10.65419         0.56411
C          3.54783        12.15012         0.65786
C          4.79776        10.00344        -0.01154
C          4.83880        12.86895         0.48320
C          3.58103        15.00417         0.58710
C          3.60674        16.52081         0.51343
C          4.84929        14.24148         0.46356
C          4.92715        17.30321         0.52103
C          3.66559        19.18141        -0.64356
C          4.90634        18.58016        -0.29424
C          6.21520         2.06273        -0.50524
C          6.26075         3.52341        -0.54158
C          7.42909         1.35850        -0.34479
C          7.38947         4.20718        -0.16638
C          6.14935         6.39709        -0.10814
C          6.03948         7.73469         0.56272
C          7.42612         5.68688        -0.16546
C          7.33155         8.53809         0.53396
C          6.06293        10.69811         0.42766
C          6.07326        12.09602         0.49393
C          7.26564         9.93531         0.60441
C          7.33942        12.81858         0.52384
C          6.10083        14.97282         0.15042
C          6.13085        16.47841         0.07888
C          7.37087        14.24933         0.29597
C          7.43399        17.20026         0.14110
C          6.11810        19.16378        -0.60245
C          7.40320        18.58998        -0.27058
C          8.63492         2.02657        -0.04998
C          8.57723         3.46185         0.30961
C          9.86513         1.37938        -0.05754
C          9.86966         4.16204         0.66704
C          8.68056         6.40169         0.24741
C          8.59545         7.84465         0.61208
C          9.90322         5.64835         0.63577
C          9.79688         8.50445         0.85322
C          8.46720        10.68688         1.01166
C          8.52028        12.13297         0.73763
C          9.76472         9.92634         1.21658
C          9.82808        12.76287         0.33175
C          8.57856        14.96024         0.28720
C          8.60411        16.41551         0.27826
C          9.83502        14.26550         0.35706
C          9.88247        17.01178         0.43903
C          8.53414        19.34759        -0.64890
C          9.86028        19.01984        -0.26136
C         11.12794         1.99909         0.22123
C         11.15737         3.40497         0.64036
C         12.23320         1.20032        -0.15396
C         12.32269         4.15763         0.88278
C         11.06924         6.33414         0.88646
C         11.07695         7.80279         0.91964
C         12.33107         5.60852         0.97001
C         12.25668         8.48560         1.11921
C         11.04952        10.70210         1.25657
C         11.05955        12.16741         0.97691
C         12.33363         9.97806         0.88264
C         12.35968        12.83475         0.68394
C         11.06367        14.91747         0.24018
C         11.11316        16.36168         0.16647
C         12.32358        14.20500         0.30783
C         12.30154        17.07576        -0.15564
C         11.07528        19.23077        -0.88699
C         12.29025        18.47952        -0.58779
C         13.59415         1.50344         0.15944
C         13.61931         3.55233         1.01691
C         14.74271         1.29217        -0.55383
C         14.80168         4.20456         0.75759
C         13.54139         6.30411         1.00295
C         13.55079         7.76149         1.40397
C         14.80481         5.64342         0.76634
C         14.72131         8.53046         0.81238
C         13.53511        10.72935         1.49175
C         13.56573        12.15705         0.92659
C         14.83479         9.97286         1.21664
C         14.79185        12.84025         0.71056
C         13.52920        14.92250         0.12136
C         13.54570        16.33701        -0.22032
C         14.74736        14.21171         0.30506
C         14.76567        16.96083        -0.56846
C         13.47679        19.08655        -0.94630
C         14.80581        18.40694        -1.06820
C         16.00077         2.09325        -0.37421
C         16.01713         3.47622         0.27572
C         17.25840         1.34274        -0.73746
C         17.27968         4.22561         0.55066
C         16.01087         6.34520         0.58142
C         15.98903         7.81196         0.46491
C         17.27190         5.65462         0.47542
C         17.26252         8.56406         0.38315
C         16.08544        10.68974         0.85147
C         16.07280        12.16767         0.75678
C         17.24956         9.92760         0.33250
C         17.27331        12.86656         0.69240
C         15.96608        14.91349         0.14131
C         15.98809        16.22915        -0.41327
C         17.18261        14.29544         0.52999
C         17.28186        16.77709        -0.66917
C         15.92232        19.24302        -0.40396
C         17.22094        18.95977        -0.66637
C         18.45696         1.50964        -0.12782
C         18.49627         3.58547         0.67192
C         19.80879         1.16277        -0.55038
C         19.73228         4.19795         0.33406
C         18.50564         6.33378         0.37057
C         18.57810         7.83039         0.52495
C         19.73537         5.62593         0.21226
C         19.68525         8.43676        -0.31326
C         18.43938        10.70542        -0.09238
C         18.53839        12.16709         0.23604
C         19.65978         9.93491        -0.50826
C         19.90737        12.77988         0.11416
C         18.27771        15.15186         0.71688
C         18.41417        16.37341         0.05141
C         20.15437        14.11572         0.46841
C         19.68461        17.18499         0.31039
C         18.52066        19.46024        -0.23294
C         19.64309        18.66696        -0.10241
C         20.87138         1.99697        -0.34866
C         20.88946         3.41569         0.00701
C         22.08722         4.11931        -0.20600
C         20.97606         6.30177        -0.08069
C         20.98405         7.73628        -0.34525
C         22.13330         5.51853        -0.21487
C         22.09438         8.46844        -0.72878
C         20.93159        10.64954        -0.71491
C         20.95089        12.10978        -0.58759
C         22.07088         9.88712        -0.89631
C         22.02388        12.89692        -1.07255
C         21.07786        14.96521        -0.17859
C         20.98464        16.44067        -0.09075
C         22.03326        14.28906        -0.97383
C         22.11552        17.19589        -0.24991
C         20.92829        19.33015        -0.07642
C         22.09612        18.63072        -0.17158
O         11.03197        11.67050         2.34209
O          3.60772        11.27201         1.86541
O         17.42061        17.84604        -1.54967
O          2.03211         8.83008         1.28278
O          9.93664        18.29402         0.95913
O         18.14350        11.69831        -1.13543
O         13.71681         2.21021         1.37492
O          8.91100        10.24893         2.35373
O          8.91867         3.70454         1.72498
O         15.81907        10.21872         2.26851
O          3.44899        15.83818         1.80692
O          5.95542        15.71312        -1.15388
O         19.34321        14.66549         1.48427
O          8.40257         6.22364        -1.20886
O         14.99840         8.27284        -0.57528
O         15.90469         3.32038        -1.21488
O         19.29620         8.99706        -1.59119
O          5.29748         5.22687        -2.06120
O          3.07627         3.83469        -2.42027
O         18.46964         2.24779         1.07749
O          4.66950        10.27368        -1.45411
H          5.39850         9.80919        -1.91805
O          9.97380        12.36616        -1.08819
H          9.32555        12.88519        -1.61104
O         19.76539        17.31418         1.76297
H         19.85839        16.40355         2.12994
O         13.36781        10.78925         2.91229
H         14.26852        10.78389         3.31001
O         19.00352         8.08459         1.90974
H         18.32763         7.70715         2.51196
O         12.49785        10.13697        -0.55783
H         11.92820         9.49145        -1.02612
O          5.80979         7.46094         1.99835
H          5.67839         8.32182         2.45163
O         15.03816        18.36250        -2.50594
H         15.96089        18.03976        -2.63972
O          5.18921        17.71176         1.88593
H          4.68273        17.10132         2.47203
O         13.76711         7.79914         2.84987
H         12.93273         7.53854         3.29372
H          0.38989         1.59503        -0.43955
H          0.34393         4.05146        -0.52824
H          2.51176         0.33381        -0.55160
H          0.38822         5.97246        -1.48839
H          0.24711         8.36648        -0.95138
H          0.09034        10.25344        -0.04256
H          0.15011        12.66371        -0.00965
H          0.16917        14.57856        -0.01054
H          0.26621        16.98711        -0.33508
H          1.52991        18.99603        -0.81813
H          4.97490         0.29372        -0.54039
H          3.67717        20.17719        -1.11070
H          7.43436         0.26431        -0.45767
H          6.11945        20.13256        -1.12647
H          9.88222         0.31822        -0.34990
H          8.37313        20.20864        -1.31493
H         12.01967         0.30725        -0.76194
H         11.13329        19.95501        -1.71280
H         14.69740         0.68723        -1.47247
H         13.43519        20.11488        -1.33701
H         17.20108         0.75095        -1.66380
H         15.64855        20.05862         0.27978
H         19.98597         0.19350        -1.04221
H         18.66542        20.55425        -0.20885
H         21.85497         1.61582        -0.67207
H         23.00517         3.55756        -0.43416
H         23.09774         6.00482        -0.41801
H         23.06979         7.97137        -0.83084
H         23.03213        10.38682        -1.08615
H         22.82448        12.40787        -1.64454
H         22.80676        14.85879        -1.50772
H         23.08408        16.70413        -0.42332
H         20.94539        20.43043        -0.10087
H         23.05327        19.16774        -0.22833
