         404
 CSIRO Nanostructure Databank - Neutral Graphene Oxide Data Set
C          1.44274         2.04476         1.22374
C          1.37064         3.42679         1.14458
C          2.58489         1.30849         0.88446
C          2.56068         4.25514         0.79640
C          1.12217         6.38118         0.52913
C          1.18443         7.72804         0.69206
C          2.26800         5.58616        -0.00979
C          2.38294         8.49119         0.45403
C          1.18740        10.66966         0.70516
C          1.18412        12.04536         0.69448
C          2.39084         9.92109         0.52988
C          2.38055        12.79675         0.52027
C          1.15901        14.97938         0.48035
C          1.13344        16.35175         0.31891
C          2.36896        14.23766         0.39842
C          2.32483        17.06295         0.03520
C          2.31733        18.49709        -0.18820
C          3.65784         1.92857         0.12449
C          3.59669         3.47975        -0.01011
C          4.96084         1.31672        -0.06657
C          4.85910         4.18717        -0.30611
C          3.54861         6.38240        -0.06157
C          3.58538         7.77107         0.12940
C          4.75513         5.65202        -0.47001
C          4.84183         8.50409         0.08832
C          3.61497        10.64809         0.40887
C          3.61015        12.08600         0.41785
C          4.84809         9.92346         0.28415
C          4.83008        12.82025         0.27285
C          3.58760        14.94399         0.15941
C          3.53389        16.34960        -0.04649
C          4.84748        14.22276         0.16570
C          4.75675        17.08582        -0.41394
C          3.45369        19.21029        -0.42402
C          4.75718        18.57725        -0.45620
C          6.10107         2.05117        -0.41153
C          6.05422         3.51345        -0.49514
C          7.34141         1.38922        -0.59602
C          7.31646         4.23946        -0.56294
C          6.08746         6.42449        -0.50841
C          6.06739         7.83431        -0.10138
C          7.32621         5.65240        -0.41660
C          7.30842         8.50097         0.09171
C          6.08456        10.61701         0.30496
C          6.09937        12.08617         0.18472
C          7.31094         9.91902         0.29279
C          7.40899        12.85056         0.46229
C          6.10528        14.93702         0.16191
C          6.05502        16.35972        -0.26561
C          7.32953        14.34708         0.52343
C          7.26925        17.20661        -0.08904
C          5.91805        19.29446        -0.57785
C          7.24739        18.67724        -0.35217
C          8.56681         2.08996        -0.70087
C          8.54675         3.53397        -0.60032
C          9.79695         1.41749        -0.81645
C          9.78780         4.23840        -0.51978
C          8.53986         6.35542        -0.21298
C          8.53359         7.77137         0.02763
C          9.77079         5.64954        -0.30281
C          9.76744         8.44094         0.27905
C          8.54934        10.60571         0.55719
C          8.56042        12.00175         0.88134
C          9.75653         9.84933         0.62256
C          9.72760        12.52240         1.45154
C          8.54077        15.15283         0.54004
C          8.54517        16.45212        -0.18754
C          9.73190        14.81000         1.16853
C          9.79192        17.24933        -0.33808
C          8.52077        19.35474        -0.69112
C          9.74820        18.71690        -0.59056
C         11.04932         2.10244        -0.72868
C         11.03040         3.54848        -0.57970
C         12.25965         1.41770        -0.72412
C         12.25925         4.27753        -0.55536
C         10.99965         6.36216        -0.19771
C         10.98180         7.73999         0.16873
C         12.22438         5.68914        -0.42781
C         12.26552         8.37580         0.50942
C         10.96534        10.50345         0.93194
C         10.96800        11.83694         1.37382
C         12.26858         9.83206         0.91309
C         12.22936        12.52204         1.49790
C         10.98124        15.47740         0.96857
C         11.03292        16.67801         0.20317
C         12.23203        14.85092         1.31433
C         12.22735        17.36342         0.02572
C         11.01527        19.35399        -0.78224
C         12.24267        18.68671        -0.55258
C         13.53521         2.09410        -0.31406
C         13.51988         3.58277        -0.57480
C         14.80014         1.45805        -0.83474
C         14.73691         4.26851        -0.57575
C         13.45558         6.48236        -0.57128
C         13.50980         7.84103        -0.03329
C         14.77938         5.73484        -0.67521
C         14.70225         8.55676         0.06018
C         13.48618        10.63129         0.69937
C         13.42129        12.03873         0.95520
C         14.69858         9.97759         0.39091
C         14.59455        12.88997         0.54630
C         13.44366        15.28433         0.82737
C         13.47408        16.71414         0.45578
C         14.62541        14.41803         0.51964
C         14.77642        17.35076         0.11389
C         13.50699        19.28513        -0.84360
C         14.73535        18.64133        -0.61766
C         15.96843         2.15773        -0.83798
C         15.98556         3.57644        -0.53916
C         17.26291         1.58236        -1.35343
C         17.21267         4.26221        -0.31801
C         15.99927         6.44900        -0.28574
C         15.96217         7.85663        -0.10636
C         17.19785         5.70355        -0.13679
C         17.18129         8.57398         0.05364
C         15.91798        10.73496         0.39020
C         15.90156        12.16511         0.49185
C         17.16767        10.02534         0.22550
C         17.09762        12.91083         0.46485
C         15.94620        15.11093         0.35481
C         15.98826        16.49709         0.06623
C         17.14800        14.34457         0.33916
C         17.19560        17.13884        -0.29065
C         15.97692        19.21124        -0.95360
C         17.19377        18.52366        -0.72954
C         18.50755         2.16692        -0.69165
C         18.44396         3.53529        -0.19860
C         19.64339         1.38807        -0.87838
C         19.61296         4.28181         0.21791
C         18.40486         6.42224         0.07654
C         18.38500         7.84041         0.09903
C         19.64271         5.70696         0.23708
C         19.67227         8.54247         0.03545
C         18.36395        10.72483         0.34280
C         18.36160        12.16753         0.61682
C         19.64577        10.05526         0.11187
C         19.69064        12.91669         0.49897
C         18.41064        15.01715         0.08931
C         18.41592        16.40793        -0.25088
C         19.65300        14.32478         0.09192
C         19.64064        17.06245        -0.58549
C         18.42682        19.16773        -0.97298
C         19.65030        18.48442        -0.88573
C         20.91442         1.64727        -0.26173
C         20.82320         3.63970         0.57970
C         22.19646         1.44014        -0.71263
C         22.07308         4.26050         0.57570
C         20.87461         6.39857         0.48958
C         20.91349         7.84292         0.41181
C         22.08883         5.67443         0.62626
C         22.08773         8.57726         0.55585
C         20.91845        10.75616         0.34461
C         20.93650        12.15321         0.29345
C         22.12401        10.01222         0.40063
C         22.15931        12.83617         0.07366
C         20.86522        14.94941        -0.31104
C         20.83558        16.32685        -0.65292
C         22.13365        14.22920        -0.28265
C         22.05275        17.00020        -1.14184
C         20.88403        19.16690        -1.06146
C         22.10603        18.48061        -1.12309
C         23.37880         2.09094        -0.15140
C         23.32098         3.42951         0.56657
C         24.59472         1.50329        -0.39971
C         24.60770         4.21315         0.67541
C         23.33497         6.38002         0.97680
C         23.33549         7.90365         0.95591
C         24.62432         5.68886         0.82433
C         24.62217         8.60883         0.79473
C         23.36511        10.70853         0.40136
C         23.38259        12.11239         0.13401
C         24.59795         9.99120         0.59134
C         24.62251        12.80138        -0.12534
C         23.34669        14.85454        -0.61535
C         23.34568        16.23406        -1.12987
C         24.59675        14.17229        -0.51608
C         24.61930        16.97793        -1.13240
C         23.35415        19.12656        -1.16488
C         24.59521        18.43336        -1.14337
C         25.89369         2.19336        -0.27797
C         25.87440         3.62798         0.14700
C         27.16663         1.46515        -0.23114
C         27.10959         4.28808         0.61199
C         25.82252         6.38807         0.83848
C         25.84863         7.84667         0.83963
C         27.09612         5.65787         0.84617
C         27.08444         8.49629         0.71155
C         25.85292        10.75422         0.53314
C         25.85711        12.12143        -0.03435
C         27.13233         9.97183         0.55981
C         27.07215        12.76866        -0.38385
C         25.82867        14.83865        -0.83935
C         25.79904        16.26594        -1.11553
C         27.04910        14.13558        -0.78493
C         27.06636        17.01283        -1.26576
C         25.80672        19.13120        -0.97334
C         27.05359        18.45576        -0.92189
C         28.35038         2.07453         0.18408
C         28.30666         3.44426         0.76219
C         29.60254         1.41251         0.14535
C         29.61196         4.13554         1.07900
C         28.33656         6.39286         0.99201
C         28.32421         7.77900         0.81888
C         29.60453         5.63806         1.21527
C         29.58323         8.56668         0.70132
C         28.23754        10.52281        -0.31194
C         28.31968        12.02832        -0.41828
C         29.54840         9.87096         0.00620
C         29.53151        12.64275        -0.74401
C         28.31469        14.73075        -1.39382
C         28.35886        16.26306        -1.32246
C         29.59745        14.06653        -0.93921
C         29.57607        16.94581        -0.81990
C         28.26080        19.08955        -0.67008
C         29.50449        18.37454        -0.52797
C         30.84852         2.05982         0.41747
C         30.86521         3.42679         0.78697
C         32.08145         1.35253         0.17353
C         32.14319         4.13685         0.96751
C         30.92577         6.35692         1.06267
C         30.92291         7.82532         0.77835
C         32.16339         5.60206         0.75057
C         32.00727         8.33532        -0.07220
C         30.68836        10.41190        -0.53319
C         30.76843        11.84338        -0.94922
C         31.79158         9.51173        -0.71999
C         32.12883        12.62730        -0.99701
C         30.80371        14.77785        -0.84860
C         30.75429        16.23822        -0.68854
C         32.06168        14.07883        -0.69733
C         31.94807        16.91592        -0.12774
C         30.61742        19.06353        -0.07111
C         31.86243        18.38757         0.29656
C         33.34301         1.96176         0.23327
C         33.41973         3.36889         0.67602
C         34.56098         1.32876        -0.10600
C         34.63261         4.14221         0.36750
C         33.32871         6.23521         0.36886
C         33.32559         7.60162        -0.29013
C         34.58375         5.53041         0.34089
C         34.52608         8.46266         0.21792
C         33.65018        10.59980        -0.95161
C         33.45514        11.97988        -0.75969
C         34.67130         9.86737        -0.34413
C         34.58485        12.69883        -0.31503
C         33.24885        14.77168        -0.38091
C         33.23723        16.20375        -0.30690
C         34.53721        14.12971        -0.24485
C         34.43720        16.87217        -0.41796
C         33.02201        19.22306         0.75727
C         34.32079        18.96094         0.35910
C         35.81235         2.02048        -0.10645
C         35.84857         3.43985         0.10765
C         37.03532         1.35600        -0.38007
C         37.07595         4.16744        -0.00219
C         35.85806         6.29824         0.56713
C         35.84664         7.73857         0.15209
C         37.10361         5.57428         0.15804
C         37.04836         8.43838         0.16946
C         35.84351        10.59308        -0.01911
C         35.81864        12.01282        -0.08790
C         37.06913         9.88857         0.17630
C         37.02316        12.73341         0.13903
C         35.72938        14.84920        -0.03238
C         35.71071        16.29448        -0.09331
C         36.98178        14.16315         0.17358
C         36.81404        17.07666         0.26509
C         35.57887        19.25176         0.92564
C         36.78638        18.52269         0.57649
C         38.26336         2.04858        -0.43266
C         38.29344         3.46812        -0.25453
C         39.50800         1.37072        -0.66155
C         39.52618         4.18455        -0.28750
C         38.31103         6.30271         0.07598
C         38.30778         7.73195         0.17094
C         39.54989         5.60332        -0.11106
C         39.53405         8.45680         0.19205
C         38.27585        10.60244         0.27899
C         38.25274        12.04032         0.30006
C         39.52695         9.89168         0.30164
C         39.46597        12.77991         0.43738
C         38.15952        14.88591         0.42130
C         38.06111        16.34805         0.61850
C         39.42117        14.21529         0.51027
C         39.34717        17.11576         0.72608
C         37.99441        19.18919         0.71742
C         39.28529        18.56182         0.27585
C         40.69769         2.05608        -0.68447
C         40.74473         3.47432        -0.49139
C         41.96175         4.20143        -0.49231
C         40.78178         6.31390        -0.10169
C         40.77683         7.75321         0.09670
C         41.97958         5.57188        -0.29525
C         41.96980         8.51121         0.17937
C         40.73939        10.62093         0.38179
C         40.71168        12.07707         0.49148
C         41.95373         9.88899         0.33245
C         41.88859        12.83507         0.63002
C         40.64978        14.94897         0.62478
C         40.64934        16.40754         0.63401
C         41.85430        14.22684         0.69100
C         41.78056        17.18721         0.65355
C         40.53637        19.30284         0.66856
C         41.70467        18.62656         0.77538
O         23.22057         7.16158         2.21791
O         22.57739        16.40125        -2.38395
O          9.71344        13.75650         2.09338
O         31.43250        12.18052        -2.20097
O          7.26486        18.09313         1.06776
O         28.82885         3.47719         2.14014
O          9.22338        16.46269        -1.47768
O         34.41127        18.19712        -0.83073
O         30.46018         8.63532         1.88591
O          5.44405        16.50792        -1.59161
O         19.74111         9.35206        -1.19475
O         12.38478         8.77119         1.93149
O         32.96701         3.60127         2.05862
O         31.67528        17.28277         1.28444
O         25.90773         3.35036        -1.29571
O         14.12686         6.29237        -1.86382
O         38.61180        16.80165         1.93482
O         19.10557        12.61166         1.81670
O         26.73172        10.70299         1.74127
O          3.12148         2.66430        -1.06664
O         14.23808        17.50395         1.48505
O          5.32505         6.13567        -1.72985
O         32.70636         9.89782        -1.70637
O         27.78923        16.82967        -2.55828
O         14.32327        13.61660        -0.71543
O         30.38169         6.05192         2.38577
O         24.06367         3.47063         1.82666
O          6.99259        12.48489        -0.90493
O         12.18780        13.73512         2.15492
O         20.78927         2.30530         0.97907
O         17.26614         0.15666        -1.27177
H         17.22824        -0.09781        -0.32722
O          3.18035         4.71979         2.02760
H          3.03866         4.04457         2.72355
O         28.22926        14.35717        -2.80381
H         27.87086        15.14868        -3.27654
O         33.51787         7.32684        -1.69388
H         33.36163         8.17157        -2.17964
O         39.26648        18.50452        -1.19497
H         39.23195        19.42523        -1.52944
O         13.58989         1.94812         1.16971
H         14.43420         2.35336         1.46322
O         27.87844        10.03437        -1.65592
H         28.44697        10.49836        -2.30829
O         35.92050         6.37561         2.05674
H         35.13226         6.89978         2.33716
O         34.23677         8.65802         1.64543
H         34.92280         9.25502         2.01449
O          1.93675         5.14340        -1.34969
H          1.92326         5.92624        -1.93838
H          0.58607         1.50477         1.65492
H          0.48018         3.93426         1.54180
H          2.66819         0.25180         1.17374
H          0.16934         5.86115         0.70483
H          0.28041         8.25166         1.03350
H          0.22883        10.14684         0.81898
H          0.22244        12.56366         0.80412
H          0.21181        14.45957         0.67552
H          0.18115        16.89678         0.38754
H          1.34740        19.01453        -0.14693
H          5.07586         0.25266         0.19034
H          3.40168        20.30081        -0.55954
H          7.35598         0.28900        -0.60031
H          5.86804        20.38864        -0.69284
H          9.79961         0.31980        -0.89273
H          8.48199        20.42103        -0.96220
H         12.26028         0.32182        -0.82886
H         11.03581        20.40702        -1.10210
H         14.80016         0.39175        -1.10740
H         13.51807        20.28126        -1.31200
H         17.31744         1.83387        -2.45165
H         16.01041        20.21937        -1.39328
H         19.53822         0.50165        -1.52487
H         18.42518        20.23120        -1.25418
H         22.35316         0.81144        -1.60195
H         20.87492        20.26409        -1.14488
H         24.60886         0.50310        -0.86080
H         23.37551        20.22700        -1.14867
H         27.18251         0.41118        -0.54748
H         25.78482        20.22390        -0.84545
H         29.62882         0.37154        -0.21053
H         28.26817        20.17257        -0.47385
H         32.01392         0.29869        -0.13660
H         30.56211        20.15735         0.03610
H         34.55050         0.26315        -0.38160
H         32.83419        19.85644         1.63739
H         37.02850         0.26739        -0.54170
H         35.67666        20.07688         1.64704
H         39.49695         0.28067        -0.80789
H         37.99040        20.25089         1.00976
H         41.64106         1.51540        -0.85068
H         42.90728         3.66153        -0.64723
H         42.94829         6.09026        -0.29866
H         42.94339         8.00508         0.12593
H         42.91542        10.41623         0.39356
H         42.86547        12.33647         0.68706
H         42.80649        14.76578         0.78968
H         42.78057        16.73178         0.63613
H         40.50673        20.39898         0.76357
H         42.63976        19.17105         0.97373
