         324
 CSIRO Nanostructure Databank - Neutral Graphene Oxide Data Set
C          1.56481         3.24518        -0.09279
C          0.42760         3.87475        -0.55651
C          1.43251         6.06708        -0.17590
C          0.35910         5.28166        -0.59713
C          1.31834         7.55041        -0.11639
C          0.29342         8.26469        -0.90367
C          1.39169        10.44219        -0.54283
C          0.29850         9.61446        -1.01630
C          1.30888        11.83107        -0.49846
C          0.09679        12.59483        -0.67352
C          1.18059        14.77959        -0.12023
C          0.01723        13.94192        -0.48383
C          1.22441        16.27880        -0.37863
C          0.01366        17.01615        -0.81740
C          1.29180        19.07906        -1.31724
C          0.02594        18.31985        -1.14119
C          1.32606        20.56021        -1.18593
C          0.12519        21.29337        -1.20330
C          1.34455        23.40438        -1.13727
C          0.13422        22.67836        -1.17290
C          1.33550        24.86070        -1.16092
C          0.13533        25.59878        -1.26706
C          1.34313        27.71024        -1.22000
C          0.13631        26.98717        -1.29655
C          1.35626        29.14717        -1.23859
C          3.87229         3.35764         0.75401
C          2.69092         4.00876         0.32769
C          3.79117         6.19891         0.66070
C          2.62730         5.43982         0.28250
C          3.81227         7.63978         0.55304
C          2.55440         8.35482         0.27327
C          3.82269        10.45956        -0.01298
C          2.62419         9.77940        -0.11541
C          3.84654        11.90309        -0.48993
C          2.53765        12.57242        -0.11356
C          3.75421        14.82409        -0.04506
C          2.48559        14.05703         0.02807
C          3.72494        16.24539        -0.35419
C          2.55283        16.92091        -0.60224
C          3.79786        19.13614        -0.86124
C          2.58259        18.32813        -1.10021
C          3.80207        20.51673        -0.91826
C          2.55659        21.25703        -1.07001
C          3.83001        23.40606        -1.02153
C          2.57275        22.68674        -1.07564
C          3.81158        24.85376        -1.01644
C          2.56812        25.56653        -1.08948
C          3.79915        27.72096        -1.02359
C          2.57344        26.99586        -1.11855
C          3.78633        29.16005        -1.00232
C          2.52622        29.84372        -1.13211
C          6.25167         3.40579         1.40161
C          5.01679         4.08688         1.11953
C          6.13011         6.29278         1.46870
C          4.94671         5.51637         1.08468
C          6.20740         7.72550         1.12065
C          4.99775         8.38080         0.71183
C          6.18825        10.53606         0.76142
C          5.02247         9.81251         0.47546
C          6.26762        12.00589         0.54371
C          5.06028        12.69492        -0.01445
C          6.13888        14.91991         0.58289
C          4.93079        14.15376         0.17475
C          6.30224        16.18996        -0.18533
C          5.03758        16.89718        -0.62766
C          6.30154        19.13239        -0.36964
C          5.06823        18.38501        -0.82683
C          6.28447        20.58227        -0.79626
C          5.07408        21.25063        -0.86646
C          6.29534        23.41926        -0.83639
C          5.05138        22.70236        -0.93808
C          6.28056        24.86771        -1.03194
C          5.01381        25.59228        -0.98809
C          6.24941        27.75020        -0.70667
C          5.02853        27.01919        -0.93810
C          6.21511        29.18872        -0.63967
C          4.97868        29.86486        -0.83628
C          8.71138         3.40894         1.68429
C          7.46111         4.07576         1.58433
C          8.66780         6.32160         1.43987
C          7.41964         5.55438         1.70141
C          8.66285         7.79724         1.61415
C          7.39023         8.43962         1.32766
C          8.43805        10.60890         1.77067
C          7.36579         9.87206         1.24158
C          8.18860        12.00274         2.02124
C          7.27202        12.76830         1.33683
C          8.62503        15.08713         1.35140
C          7.31130        14.27529         1.25794
C          8.75723        16.39673         0.63042
C          7.60249        16.91796        -0.14664
C          8.87106        19.11908        -0.54019
C          7.59175        18.35857        -0.59995
C          8.87381        20.61706        -0.67390
C          7.55977        21.32598        -0.84745
C          8.72408        23.47962        -0.23826
C          7.52365        22.78116        -0.64476
C          8.68019        24.87771        -0.12259
C          7.58014        25.63794        -0.69346
C          8.61881        27.79706        -0.03765
C          7.46573        27.08501        -0.44127
C          8.60596        29.23412        -0.06891
C          7.40363        29.90134        -0.38415
C         11.19628         3.48432         1.61395
C          9.94396         4.09979         1.69146
C         11.18218         6.33583         1.81904
C          9.93773         5.57472         1.51076
C         11.16232         7.82718         1.94197
C          9.82409         8.50716         1.83416
C         11.08861        10.74379         2.15086
C          9.73920         9.96586         2.09694
C         11.11852        12.22345         1.88835
C         10.09264        13.05502         2.22352
C         11.24102        15.16628         1.54997
C          9.94888        14.47497         1.84493
C         11.22562        16.58836         1.11261
C          9.94008        17.15261         0.63681
C         11.23248        19.22398         0.18154
C         10.03245        18.47170         0.08456
C         11.22573        20.65239         0.16088
C         10.01292        21.36710        -0.09309
C         11.00871        23.33526         1.02935
C          9.91833        22.73579         0.13842
C         10.90510        24.85902         1.12960
C          9.71778        25.62671         0.60993
C         10.92716        27.83000         0.75835
C          9.78901        27.10500         0.41811
C         10.98199        29.25896         0.55106
C          9.81379        29.93638         0.18968
C         13.45476         3.57028         0.58813
C         12.35622         4.25001         1.22797
C         13.32099         6.49883         0.53552
C         12.38237         5.64158         1.32702
C         13.55718         7.89651         1.12627
C         12.44731         8.58783         1.68401
C         13.54535        10.81012         1.99650
C         12.38425        10.01002         1.91422
C         13.61744        12.18465         1.65080
C         12.34564        12.85009         1.31514
C         13.71371        15.04292         1.02095
C         12.41232        14.33966         1.14319
C         13.71642        16.41652         0.71525
C         12.49559        17.17222         0.61620
C         13.72753        19.25314        -0.06049
C         12.47860        18.52271         0.32070
C         13.68740        20.70829         0.34753
C         12.45305        21.38190         0.43158
C         13.59999        23.49662         1.01639
C         12.41075        22.77602         0.75598
C         13.46286        24.92658         1.34952
C         12.16217        25.61900         1.40504
C         13.40611        27.88092         1.15262
C         12.13085        27.16340         1.29725
C         13.42510        29.31736         0.94795
C         12.21891        29.97347         0.72998
C         15.50141         3.59665        -0.77022
C         14.49527         4.27667         0.01962
C         15.64035         6.41094        -0.36569
C         14.54896         5.72809         0.11432
C         15.74092         7.83153        -0.16630
C         14.82089         8.49433         0.73028
C         16.33085        10.47597         0.62494
C         15.29925         9.71630         1.24979
C         16.59643        11.82739         0.96951
C         14.80022        12.95747         1.65164
C         16.22383        14.95528         0.96106
C         14.90723        14.29532         1.19969
C         16.19559        16.40684         0.67163
C         14.98648        17.11029         0.55994
C         16.18065        19.26103         0.25987
C         14.97015        18.52640         0.37592
C         16.14351        20.71692         0.24267
C         14.90302        21.42331         0.47132
C         16.17398        23.46710         0.72085
C         14.88582        22.82487         0.79522
C         16.40616        24.83659         1.11018
C         14.51138        25.78181         1.67075
C         15.85646        27.84081         0.96370
C         14.57329        27.18049         1.37880
C         15.88763        29.31484         1.19337
C         14.68017        30.00221         1.13272
C         17.46644         3.64695        -2.25698
C         16.55743         4.26874        -1.32384
C         17.67285         6.47257        -1.83863
C         16.86209         5.67054        -0.85634
C         17.72694         7.87354        -1.68410
C         16.83715         8.52767        -0.75123
C         18.06204        10.66147        -1.12848
C         17.04893         9.89943        -0.46330
C         18.24784        12.03365        -0.78608
C         17.42242        12.66094         0.19058
C         18.42236        14.92171        -0.42681
C         17.44883        14.13584         0.41735
C         18.51427        16.40576        -0.29563
C         17.51807        17.14519         0.60335
C         18.56030        19.29442        -0.37995
C         17.38868        18.57758         0.14582
C         18.61414        20.75272        -0.18463
C         17.35530        21.41521         0.11515
C         18.53550        23.58995        -0.12775
C         17.32460        22.82214         0.24545
C         18.48613        25.09696        -0.13155
C         17.30373        25.68407         0.53187
C         18.41132        27.99429         0.37038
C         17.13451        27.15901         0.55664
C         18.37162        29.25925         1.21995
C         17.15423        29.92472         1.42255
C         18.39504         4.37961        -2.93643
C         19.37095         6.59018        -3.57482
C         18.48731         5.81626        -2.77731
C         19.48268         7.95258        -3.38533
C         18.68609         8.63708        -2.42192
C         19.89802        10.80342        -2.77011
C         18.86458        10.03276        -2.13382
C         20.20346        12.06779        -2.37052
C         19.43799        12.73182        -1.31333
C         20.46998        15.06160        -1.90511
C         19.60071        14.20930        -1.04484
C         20.59557        16.37612        -1.67738
C         19.90821        17.03129        -0.49919
C         21.08240        19.33050        -0.53564
C         19.85074        18.54530        -0.67119
C         21.04755        20.68885        -0.40563
C         19.82076        21.43340        -0.27704
C         21.00247        23.76341        -0.37714
C         19.86341        22.90626         0.12119
C         20.95847        25.12029        -0.27512
C         19.74771        25.85496         0.03362
C         20.86918        27.87850         0.89006
C         19.70316        27.18305         0.48168
C         20.81213        29.17148         1.41065
C         19.59698        29.84403         1.59863
O          9.34760         5.92434         0.19301
O          9.08573        15.22289         2.73378
O         11.45736        16.21846         2.53116
O         16.12354        27.53713        -0.47564
O         12.00403        26.47400         2.58190
O         18.96537        18.90396        -1.76491
O          8.36650        18.51645        -1.79997
O          7.25902        16.00856        -1.27199
O          6.27028        14.98329         2.03948
O          5.18433        17.47663        -1.96027
O          9.82415        25.23179         2.04221
O          9.01487        12.59720         2.97653
O         10.38872        10.34801         3.36012
O         18.36478        24.32777        -1.37882
O         12.16574        13.45032        -0.01996
O          7.21821        25.29911        -2.06995
O          2.04882        18.54585        -2.46131
O          0.99643        15.73637         0.97635
O          6.64896         6.02550         2.83979
O         17.37041        14.56434         1.81133
O          8.45972        21.02698        -2.00796
O         15.98347        12.34402         2.10986
O          6.22381        12.40694        -0.89305
O         11.25172         6.95588         3.14634
O         20.29964        13.28489        -0.18135
O         15.68320        25.27540         2.21351
O          1.47777         8.07031         1.24362
O          2.48962        13.16091         1.21405
O         17.84202        15.81870        -1.44527
O         14.73495        10.18971         2.43518
O         13.79315        19.26416        -1.53690
H         13.77816        18.33277        -1.84434
O         10.69971        22.82500         2.36368
H         10.08325        23.47336         2.77794
O          6.21646        19.16583         1.09915
H          5.43152        19.69589         1.35525
O         17.73607         5.51409         0.32061
H         17.24939         4.96802         0.97433
O         18.43063        28.47452        -1.00203
H         17.49500        28.44600        -1.31958
O         19.98605        22.88752         1.58672
H         20.79934        22.39008         1.81568
O          3.88115        11.88911        -1.93904
H          4.83086        11.83647        -2.19716
O         18.07910        17.20363         1.94816
H         18.01135        16.29171         2.32402
O         20.68749        16.76566         0.68684
H         20.82508        15.79769         0.76495
O         12.58458         6.77606        -0.72552
H         12.29859         5.91486        -1.09974
H          1.61790         2.14796        -0.05041
H         -0.43887         3.28369        -0.88351
H         -0.57122         5.75388        -0.94056
H         -0.51231         7.68765        -1.37921
H         -0.52357        10.10607        -1.55632
H         -0.82556        12.05193        -0.92753
H         -0.96208        14.43302        -0.57525
H         -0.95025        16.49573        -0.72232
H         -0.92657        18.82031        -1.36797
H         -0.83920        20.77304        -1.26809
H         -0.82827        23.20437        -1.20171
H         -0.82973        25.07997        -1.33469
H         -0.81484        27.53240        -1.37951
H          0.39822        29.67944        -1.33034
H          3.90441         2.25802         0.76037
H          2.52277        30.94343        -1.13454
H          6.25096         2.30596         1.35887
H          4.96082        30.96457        -0.80762
H          8.72070         2.30817         1.68148
H          7.38528        31.00121        -0.39631
H         11.27037         2.38676         1.63412
H          9.83029        31.03146         0.08699
H         13.42116         2.47501         0.49458
H         12.20498        31.06882         0.62904
H         15.34083         2.53237        -1.00334
H         14.67383        31.10006         1.20965
H         17.35997         2.56885        -2.45061
H         17.17574        30.96429         1.78770
H         19.06143         3.89234        -3.66304
H         19.99646         6.08737        -4.32636
H         20.20824         8.50904        -3.99328
H         20.50134        10.34557        -3.56503
H         21.05350        12.59402        -2.82501
H         21.01828        14.59170        -2.73449
H         21.23507        16.99439        -2.32463
H         22.03965        18.79401        -0.46667
H         21.99871        21.23530        -0.31765
H         21.94675        23.28165        -0.67315
H         21.86967        25.69674        -0.49948
H         21.84094        27.36477         0.85038
H         21.74446        29.65754         1.73135
H         19.59224        30.82703         2.09309
