         621
 CSIRO Nanostructure Databank - Neutral Graphene Oxide Data Set
C          5.68917        31.78400         0.70396
C          5.67814        33.14515         0.86098
C          8.21930        27.49279         0.07349
C          8.13789        28.86303         0.32333
C          6.93599        29.63802         0.41432
C          8.12955        31.82154         0.58274
C          6.91650        31.03555         0.56632
C          8.12719        33.19499         0.74844
C          6.89351        33.92807         0.89128
C          8.14542        36.07352         1.13084
C          6.91139        35.31720         1.02063
C          8.16034        37.50020         1.24660
C         10.85330        23.37534        -0.71034
C         10.83192        24.70798        -0.36756
C          9.57086        25.43207        -0.36225
C         10.68927        27.39880         0.55380
C          9.46641        26.75616         0.00493
C         10.62169        28.86305         0.83186
C          9.41548        29.61895         0.36530
C         10.65570        31.83385         0.82040
C          9.41647        31.11578         0.42302
C         10.62591        33.17232         1.04641
C          9.41528        33.96696         0.59268
C         10.62304        36.10401         1.49616
C          9.36240        35.38055         1.10008
C         10.61964        37.55362         1.10363
C          9.37427        38.25057         1.12444
C         10.60103        40.36387         0.72347
C          9.40047        39.66500         0.99145
C         10.64611        41.80912         0.72651
C         13.27086        19.09232        -1.32503
C         13.30574        20.43846        -0.76375
C         12.15244        21.17952        -0.94315
C         13.41481        23.34142        -0.53840
C         12.11338        22.64163        -0.87940
C         13.34274        24.73847        -0.03041
C         12.07675        25.38887         0.01007
C         13.20473        27.43184         0.73287
C         12.01513        26.72693         0.45356
C         13.16428        28.89964         0.87795
C         11.87076        29.64173         1.21204
C         13.14285        31.73139         1.19175
C         11.94692        31.05430         0.61032
C         13.16388        33.19026         1.23525
C         11.87896        33.92915         1.29386
C         13.06109        36.06457         0.89305
C         11.87836        35.39491         1.09155
C         13.09073        37.51475         0.70780
C         11.81934        38.22383         0.79804
C         13.01307        40.27400         0.01557
C         11.80360        39.61474         0.54485
C         12.96219        41.77601        -0.09122
C         11.80969        42.52503         0.46301
C         13.13214        44.65322         0.53473
C         11.93403        43.93757         0.68370
C         13.24601        46.06203         0.62240
C         15.97529        14.94753        -2.01808
C         15.36895        15.95115        -1.26426
C         14.33677        16.83270        -1.65443
C         15.85967        18.91767         0.14851
C         14.05237        18.02461        -0.93153
C         15.76787        20.35815         0.10305
C         14.51903        21.09411        -0.21558
C         15.81105        23.22275         0.12784
C         14.55563        22.47948        -0.15282
C         15.82459        24.70658         0.33231
C         14.51986        25.42133         0.34728
C         15.71390        27.53625         0.96330
C         14.47742        26.79775         0.68946
C         15.69147        28.87160         1.33366
C         14.43613        29.62509         1.18700
C         15.58998        31.81382         1.79195
C         14.29704        30.99644         1.81202
C         15.63899        33.24001         1.29597
C         14.38573        33.81112         0.59426
C         15.34290        36.02413         0.14741
C         14.27864        35.32016         0.59427
C         15.55265        37.43591         0.47467
C         14.27638        38.19537         0.42382
C         15.55790        40.22971        -0.17053
C         14.33828        39.58711         0.09039
C         15.51128        41.66585        -0.40193
C         14.26435        42.46925        -0.24865
C         15.70249        44.50869         0.34097
C         14.34733        43.92263         0.07862
C         15.77338        45.97693         0.74793
C         14.48016        46.75224         0.51518
C         15.76063        48.88516         0.29704
C         14.53649        48.14577         0.37022
C         15.83316        50.25671         0.07014
C         18.47195        10.87171        -2.68098
C         18.43741        12.12918        -2.13556
C         17.33313        13.00490        -2.33502
C         18.31511        14.76732        -0.90200
C         17.17860        14.22752        -1.67423
C         18.27280        16.09965        -0.36022
C         17.09884        16.79358        -0.06207
C         18.32577        18.93369         0.12519
C         17.07611        18.21653         0.13661
C         18.26162        20.38493         0.28109
C         16.94669        21.02741         0.41605
C         18.12187        23.14780         1.35263
C         16.92763        22.46246         0.75399
C         18.21305        24.64517         1.24078
C         17.02466        25.34810         0.93256
C         18.29280        27.58472         1.05751
C         17.01638        26.82236         0.84287
C         18.13950        29.03197         1.41665
C         16.88865        29.65073         1.62349
C         18.05800        31.79414         2.14099
C         16.87289        31.06184         1.86715
C         18.06294        33.29273         2.04026
C         16.99424        33.84068         1.16081
C         18.34009        35.91090         0.67053
C         17.24045        34.99109         0.47703
C         18.23300        37.27880         0.39828
C         16.92109        38.06380         0.48854
C         18.27210        40.19670         0.09826
C         16.90065        39.56992         0.23177
C         18.51475        41.46551        -0.62289
C         16.56911        42.42935        -0.85014
C         18.12219        44.52310        -0.68428
C         16.85268        43.78749        -0.31523
C         18.01234        46.01725        -0.50978
C         16.97313        46.65312         0.12346
C         18.31469        48.84887         0.15985
C         17.02396        48.11704         0.38356
C         18.31500        50.28497        -0.15537
C         17.06998        50.97222        -0.18113
C         18.27923        52.99464        -0.91659
C         17.07490        52.33090        -0.56430
C         18.28290        54.33727        -1.36806
C         20.92605         6.84046        -4.21655
C         20.95742         8.21665        -3.73083
C         19.75967         8.75635        -3.25621
C         20.89471        10.82633        -2.36897
C         19.64725         9.97616        -2.39249
C         20.87729        12.04197        -1.72917
C         19.55272        12.57253        -1.20685
C         20.79136        14.67513        -0.57780
C         19.55459        14.06485        -0.92157
C         20.81675        16.04055        -0.01571
C         19.51283        16.77968         0.09411
C         20.77165        18.94086         0.46740
C         19.53444        18.25784         0.17321
C         20.76001        20.28732         0.85873
C         19.52762        21.09324         0.72471
C         20.65696        23.04680         1.87799
C         19.35693        22.26504         1.67773
C         20.64910        24.55751         1.94140
C         19.42117        25.30865         1.55839
C         20.81190        27.41844         1.94279
C         19.47096        26.79845         1.62510
C         21.15748        28.82817         1.66005
C         19.25117        29.87141         1.44956
C         20.60712        31.74613         2.49838
C         19.30795        31.12625         2.06428
C         20.63757        33.25440         2.38027
C         19.39615        34.00867         1.95302
C         20.75231        35.92619         1.15200
C         19.54264        35.28495         1.19533
C         20.84134        37.27294         0.56373
C         19.52105        37.99411         0.27198
C         20.71016        40.18559         0.53644
C         19.55989        39.46700         0.31665
C         20.63503        41.68682         0.51562
C         19.52801        42.29788        -0.28981
C         20.80009        44.43856        -0.51255
C         19.48994        43.74773        -0.68084
C         21.02315        45.72767        -1.01372
C         19.12027        46.84830        -0.95917
C         20.74899        48.71182        -0.38056
C         19.39406        48.09619        -0.50212
C         20.79205        50.18938        -0.51969
C         19.54398        50.90831        -0.51468
C         20.75510        52.95126        -1.17345
C         19.53073        52.28876        -0.86656
C         20.74533        54.32402        -1.55182
C         19.48386        54.99523        -1.70794
C         20.65741        57.01206        -2.54382
C         19.47928        56.29778        -2.26496
C         20.50341        58.23388        -3.30527
C         23.55108         4.65949        -5.82867
C         22.25937         4.98340        -5.36526
C         23.64848         7.48661        -4.93077
C         21.86620         6.32049        -5.09578
C         23.49219         8.50030        -3.95425
C         22.18419         8.96716        -3.57815
C         23.42237        10.87877        -2.32564
C         22.12978        10.29309        -2.94064
C         23.31221        12.02160        -1.42139
C         22.10345        12.70844        -1.34449
C         23.27791        14.71574        -0.49315
C         22.04387        14.02668        -0.75478
C         23.25756        16.12896        -0.20591
C         22.06976        16.82374        -0.01410
C         23.22013        18.92480         0.59425
C         22.03344        18.22671         0.35734
C         23.23967        20.27819         1.11135
C         21.96627        20.98575         1.23839
C         23.18667        23.09436         1.70577
C         21.93195        22.33496         1.60316
C         23.18912        24.51809         2.11261
C         21.97979        25.23723         2.00509
C         23.22360        27.29281         2.51783
C         22.02837        26.62016         2.17868
C         23.19451        28.71939         2.89063
C         22.04273        29.51014         2.41982
C         23.26865        31.69137         2.56471
C         21.94889        30.96132         2.85745
C         23.27065        33.17976         2.45950
C         21.97537        33.94772         2.30239
C         23.29832        35.93475         1.28679
C         22.00682        35.21165         1.48601
C         23.24981        37.40232         1.07078
C         22.07876        38.06898         0.81077
C         23.17958        40.27033         0.93738
C         22.02459        39.53937         0.73764
C         23.20971        41.78629         1.15093
C         21.90071        42.47557         0.69597
C         23.18968        44.39194        -0.24420
C         21.93398        43.80912         0.03547
C         23.36396        45.78815        -0.49529
C         22.15739        46.49967        -0.68341
C         23.35746        48.72341        -0.15200
C         22.04618        47.94503        -0.34381
C         23.28562        50.13448        -0.71306
C         22.01954        50.84166        -0.75678
C         23.20574        52.96483        -1.26577
C         21.99775        52.25073        -1.07247
C         23.20784        54.32621        -1.65427
C         21.95940        55.02365        -1.81493
C         23.19761        57.02971        -2.50065
C         21.93275        56.39605        -2.22433
C         23.31034        58.41727        -2.73088
C         21.44810        59.25554        -3.32441
C         22.99012        60.84835        -4.41603
C         21.71032        60.27479        -4.27152
C         24.71818         5.42392        -5.74018
C         25.99066         7.18735        -4.45776
C         24.81698         6.69397        -5.06989
C         25.95095         8.35005        -3.63836
C         24.69400         8.95925        -3.34429
C         25.90205        10.54006        -1.70475
C         24.62381        10.00426        -2.31627
C         25.87394        11.86579        -1.00109
C         24.52453        12.58547        -0.79718
C         25.77943        14.68872        -0.33570
C         24.52594        14.03798        -0.56241
C         25.80016        16.07238        -0.01776
C         24.54071        16.84101        -0.13808
C         25.73047        18.85883         0.89639
C         24.50472        18.29252         0.25968
C         25.77460        20.35942         1.00799
C         24.43830        20.88841         1.47640
C         25.66704        22.93487         2.43739
C         24.47519        22.32829         1.75120
C         25.67006        24.43047         2.54358
C         24.41425        25.19250         2.30503
C         25.71177        27.32347         2.52969
C         24.44853        26.59111         2.53154
C         25.72358        28.71307         2.49437
C         24.52046        29.49869         2.81645
C         25.76556        31.67380         2.57023
C         24.44524        30.97999         2.57506
C         25.77707        33.22639         2.38906
C         24.51651        33.85783         2.06249
C         25.84328        36.04380         1.78763
C         24.52912        35.32070         1.88718
C         25.85930        37.40968         1.17653
C         24.54895        38.11031         0.97251
C         25.83076        40.31604         1.08781
C         24.49950        39.59379         1.13265
C         25.82736        41.82625         0.82016
C         24.42745        42.30664         0.40772
C         26.10059        44.51994        -0.66228
C         24.26297        43.42999        -0.33213
C         25.92550        45.90670        -0.53775
C         24.63005        46.55474        -0.55218
C         25.83036        48.73066        -0.53924
C         24.61017        47.95290        -0.52715
C         25.76278        50.13972        -0.64929
C         24.50009        50.81478        -0.80944
C         25.78608        53.02338        -1.25164
C         24.46983        52.28738        -0.92508
C         25.69150        54.30761        -1.93280
C         24.45107        54.97080        -2.02367
C         25.63108        56.93417        -2.99775
C         24.42113        56.29924        -2.53250
C         25.58225        58.26149        -3.51365
C         24.40273        59.02562        -3.41304
C         24.21863        60.31949        -4.00990
C         27.15582         8.92702        -3.11997
C         28.34536        10.80259        -2.03993
C         27.17281        10.06243        -2.29366
C         28.33281        12.08077        -1.41199
C         27.09360        12.67229        -0.98036
C         28.26690        14.74315        -0.37260
C         27.04193        14.00783        -0.52206
C         28.24320        16.07257         0.07724
C         27.00966        16.73099         0.26369
C         28.26804        18.80649         1.12749
C         26.99850        18.09713         0.83770
C         28.19169        20.16073         1.69682
C         26.99956        20.85612         1.74178
C         28.22534        22.96123         2.41941
C         26.96499        22.12243         2.56942
C         28.18937        24.37866         2.47253
C         26.96370        25.15310         2.49350
C         28.20476        27.27660         2.34146
C         26.95901        26.55488         2.41989
C         28.22711        28.70241         2.22394
C         26.93112        29.43834         1.94813
C         28.19895        31.60070         2.17861
C         26.99066        30.92029         2.28279
C         28.22466        33.06694         1.90795
C         27.03293        33.90362         1.99585
C         28.37836        36.00725         1.71850
C         27.11967        35.27729         1.81071
C         28.36062        37.46184         1.45815
C         27.13614        38.16727         1.27450
C         28.34134        40.24094         0.82961
C         27.12233        39.55165         1.00074
C         28.35143        41.61988         0.28853
C         27.05558        42.32982         0.02853
C         28.39372        44.51438        -0.03558
C         27.18789        43.80576        -0.16604
C         28.37199        45.92809        -0.23226
C         27.13521        46.63479        -0.35881
C         28.34495        48.73412        -0.57007
C         27.10985        48.05655        -0.45684
C         28.36474        50.19997        -0.65821
C         27.02125        50.92960        -0.67561
C         28.19740        52.85251        -1.81675
C         27.02199        52.25983        -1.30102
C         28.11289        54.16194        -2.37689
C         26.89479        54.88542        -2.45600
C         26.83415        56.19505        -2.99570
C         29.53339        12.79879        -1.21217
C         30.74387        14.76756        -0.36549
C         29.53707        14.09704        -0.65902
C         30.77544        16.07997         0.18362
C         29.50652        16.90166         0.10422
C         30.65533        18.60427         1.68213
C         29.43307        18.10351         1.02542
C         30.64529        20.01083         2.21614
C         29.41472        20.81528         2.13789
C         30.73865        22.88871         2.54576
C         29.45509        22.20623         2.38660
C         30.68887        24.35326         2.77167
C         29.42685        25.11087         2.51377
C         30.69250        27.24759         2.49436
C         29.41204        26.50833         2.42877
C         30.70616        28.74796         2.43101
C         29.42218        29.45453         2.23206
C         30.66953        31.63174         2.39856
C         29.44909        30.87631         2.16061
C         30.59331        32.99836         2.55655
C         29.54816        33.83792         1.98075
C         30.86213        36.01043         1.73460
C         29.59702        35.32894         1.93053
C         30.87200        37.52462         1.74433
C         29.57047        38.18905         1.36171
C         30.81622        40.32681         0.88189
C         29.57719        39.57000         1.01527
C         30.84141        41.69175         0.54148
C         29.61367        42.39779         0.31317
C         30.85694        44.51932        -0.03592
C         29.62567        43.78846         0.12212
C         30.83803        45.91535        -0.31380
C         29.60442        46.63394        -0.36169
C         30.81233        48.73079        -0.90836
C         29.57684        48.03233        -0.60826
C         30.75439        50.09666        -1.30550
C         29.55471        50.84180        -1.26900
C         29.44474        52.14176        -1.77725
C         31.95678        16.67387         0.57562
C         33.17956        18.75640         1.36879
C         31.97280        17.92240         1.36630
C         33.19100        20.07944         1.73734
C         31.98906        20.74893         2.30777
C         33.27605        22.89754         2.37391
C         31.95226        22.22359         2.41413
C         33.31442        24.41085         2.42339
C         32.02448        25.11630         2.71084
C         32.80440        26.86030         1.21459
C         31.90402        26.46079         2.15900
C         32.93757        29.01585         1.18085
C         31.98061        29.52337         2.16422
C         33.30407        31.73608         1.88445
C         32.03740        31.01579         2.40215
C         33.26230        33.17304         1.47924
C         32.38714        34.05062         2.03959
C         33.19581        35.98259         0.80386
C         32.09694        35.37751         1.55068
C         33.17808        37.43518         0.64824
C         32.06847        38.14175         1.05730
C         33.38213        40.31359         0.62741
C         32.08733        39.61373         1.05780
C         33.30546        41.70903         0.18943
C         32.09041        42.40370         0.28094
C         33.29720        44.48263        -0.38523
C         32.07767        43.80101        -0.03620
C         33.26838        45.87685        -0.63642
C         32.06467        46.61327        -0.59604
C         32.01830        48.00475        -0.89920
C         34.37040        20.86575         1.47926
C         35.59213        22.99176         1.38223
C         34.42844        22.21865         1.72555
C         35.57784        24.37639         1.30891
C         34.37258        25.09788         1.63922
C         35.18451        27.09829         0.32179
C         34.14008        26.34303         1.07820
C         35.16982        28.65018         0.15785
C         34.19140        29.48325         0.93530
C         35.54018        31.55903         0.54372
C         34.43828        30.90456         1.29587
C         35.58267        33.07800         0.53780
C         34.15035        33.66782         0.36288
C         35.29567        35.78849        -0.50907
C         34.20017        35.18676         0.29429
C         35.35895        37.30308        -0.61515
C         34.33760        38.10488         0.08119
C         35.63010        40.13552        -0.48743
C         34.46707        39.47822         0.09041
C         35.65087        41.53962        -0.57842
C         34.49761        42.33838        -0.30792
C         34.48625        43.72639        -0.53960
C         36.65581        25.14139         0.70389
C         37.67461        27.10950        -0.43435
C         36.49675        26.40684         0.22184
C         37.76119        28.59259        -0.02078
C         36.44674        29.35191        -0.34468
C         37.86449        31.45923        -0.27639
C         36.56387        30.81379         0.05045
C         37.87762        32.93763        -0.48855
C         36.50581        33.55903        -0.60008
C         37.68922        35.69199        -1.21809
C         36.54731        35.05697        -0.72250
C         37.73133        37.11707        -1.32610
C         36.65676        37.93278        -0.94200
C         36.73052        39.34197        -0.90239
C         38.92798        29.28664        -0.69898
C         40.08436        31.36467        -1.42366
C         38.97929        30.64207        -0.81094
C         40.08412        32.71479        -1.62867
C         38.96900        33.56646        -1.26709
C         38.86599        34.89908        -1.57323
O         14.19849        43.49712        -1.32068
O         13.94507        29.54958        -0.18255
O         22.77978        35.07427         0.21982
O         17.57368        41.80974        -1.59272
O          9.58216        30.39689        -0.87999
O         16.60360        43.70949         1.16252
O         22.62953        33.96380         3.59455
O         18.48615        34.16249         3.11227
O         33.74276        23.62109         3.56458
O         19.77746        27.28823         2.99636
O         25.20228        52.98911         0.11329
O         32.45489        30.08390         3.42497
O         20.90179        42.38693         1.77564
O         27.85078        50.86082         0.54134
O         17.49454        40.33463         1.34419
O         19.08871        21.22595        -0.64824
O         16.35049        35.35535        -0.55070
O         20.10522        16.14115         1.28075
O         32.44465        27.95364         0.41462
O         25.29929        37.56145        -0.18148
O         31.66384        33.64265         3.17583
O         30.79913        28.04975         3.72099
O         20.05573        46.29251        -1.83609
O         14.70647        18.18665         0.31867
O         10.33688        27.91299         1.91032
O         34.47426        31.35411         2.70130
O         18.76136        44.06268        -1.89782
O         24.65543        17.92836        -1.14776
O         25.88447        32.58427         3.71477
O         15.89513        16.11975         0.03679
O         33.03868        40.14853         2.04561
O         38.27980        32.39799         0.79529
O         16.17020        24.09561        -0.98990
O         23.89429        29.09205         4.08355
O         25.08936        36.04920         3.05102
O         17.91042        48.46206         1.51410
O         34.80239        36.49801        -1.71656
O         20.56093        23.71954         3.18353
O         26.13975        18.13741         2.07991
O         29.04245        33.30094         0.70495
O         15.45858        32.93647         2.72036
O         17.88578        27.28728        -0.30110
O         31.25719        17.68389         2.64749
O         27.62929        41.56441        -1.05169
O         22.97377        11.25380        -3.66861
O         20.36778        32.62585         3.64772
O         21.26138        48.13989         0.90460
O         22.60984         7.29544        -5.82316
O         24.07962        23.01769         0.48742
O         12.66013        33.65146         2.55168
O         25.39995        23.56164         3.73247
O         16.25933        37.68964         1.75428
O         25.17494        40.02048         2.36827
O         31.37906        20.11376         3.46861
O         34.66452        27.76825        -0.88004
O         25.16665        43.74751        -1.34008
O         31.40072        24.83335         3.96937
O         12.99310        23.23186        -1.93478
O         25.09515         9.54131        -1.00839
O         20.35538        37.41906        -0.80712
O         12.69483        40.94399        -1.26328
O         25.15823        11.81342         0.27341
O         16.99766        22.73631         2.20432
O         20.37791        29.49428         0.72665
O         22.33475        59.24649        -2.20919
O         36.36842        29.39725        -1.79682
H         35.47265        29.70580        -2.04878
O          9.62448        34.11752        -0.86480
H          9.59316        33.22080        -1.26439
O         10.63965        36.08258         2.98423
H         11.13202        35.28079         3.26911
O         37.95167        28.61092         1.40929
H         38.18046        29.52438         1.68427
O         36.01861        33.05854        -1.87549
H         35.06986        33.31693        -1.96664
O         23.35115        42.02502         2.56675
H         22.44600        42.00090         2.95547
O         14.39874        33.33061        -0.76525
H         15.09346        33.82760        -1.25194
O         14.03350        30.78585         3.22658
H         14.02771        31.67482         3.64905
O         27.01055        21.63283         3.94447
H         26.67796        22.36376         4.51692
O         25.89896        20.87083        -0.36156
H         25.37005        21.69747        -0.44205
O         23.55902        48.93648         1.27749
H         22.66579        48.90800         1.70045
O         29.57298        17.51665        -1.23982
H         29.64010        16.78753        -1.89320
O         36.07909        33.57982         1.78660
H         35.77384        32.96700         2.49576
O         12.11519        31.04220        -0.82821
H         11.26539        30.74078        -1.23611
O         19.10510        21.60006         2.93270
H         19.18466        22.27933         3.64054
O         33.58530        33.19294        -0.90149
H         32.79134        33.73374        -1.09993
O         26.74511        29.39389         0.47673
H         27.53892        29.80126         0.06769
O         19.45369         9.44453        -1.01398
H         20.22124         8.87001        -0.80496
O         21.91643        30.82363         4.29228
H         21.70981        31.70942         4.67143
O         31.03849        37.85113         3.17083
H         31.97027        37.67209         3.42006
O         37.59409        26.98712        -1.85480
H         36.93427        27.64754        -2.17606
O         15.96535        46.01579         2.18270
H         16.59855        45.29801         2.41135
O         19.31343        11.95852         0.09061
H         19.24456        10.98078        -0.06021
O         26.04188        42.47545         2.09845
H         25.33042        42.15400         2.70534
O         11.77252        29.85753         2.63123
H         11.43837        29.02430         3.03560
H          4.73718        31.23280         0.68471
H          4.71725        33.67126         0.96345
H          7.28878        26.92764        -0.09352
H          5.97213        29.10667         0.37906
H          5.95701        35.86212         1.08463
H          7.20257        38.04134         1.27865
H          9.90879        22.84401        -0.90324
H          8.67558        24.88712        -0.69908
H          8.46117        40.23123         1.08134
H          9.74404        42.35021         1.05042
H         12.59260        18.94774        -2.17916
H         11.24137        20.66275        -1.28167
H         11.03601        44.48284         1.01256
H         12.32415        46.65673         0.72074
H         15.46184        14.61889        -2.93474
H         13.87512        16.70112        -2.64262
H         13.58915        48.69969         0.27415
H         14.89633        50.83068        -0.00290
H         17.65107        10.51162        -3.31900
H         16.52393        12.66462        -2.99979
H         16.12608        52.88514        -0.61615
H         17.32884        54.87589        -1.46801
H         20.15249         6.17825        -3.80031
H         18.84617         8.15017        -3.35559
H         18.51035        56.76888        -2.48886
H         19.60442        58.32050        -3.93431
H         23.69256         3.61832        -6.16149
H         21.55970         4.16319        -5.14950
H         23.04756        61.73911        -5.06249
H         20.91642        60.57889        -4.96861
H         25.66287         4.92431        -6.00363
H         26.94393         6.65619        -4.59297
H         26.48133        58.69308        -3.97626
H         25.12363        60.83187        -4.37052
H         28.11549         8.52504        -3.47856
H         29.30439        10.41933        -2.41911
H         29.03201        54.63254        -2.75580
H         27.75168        56.65916        -3.38650
H         30.48972        12.32601        -1.47909
H         31.69293        14.22246        -0.48320
H         31.67199        50.58325        -1.66923
H         30.33536        52.62879        -2.20074
H         32.90547        16.12547         0.46023
H         34.08453        18.33398         0.90478
H         34.20600        46.39100        -0.89592
H         32.95684        48.52314        -1.14702
H         35.23673        20.35875         1.02805
H         36.47772        22.44792         1.02010
H         36.55347        42.03477        -0.96629
H         35.40570        44.22788        -0.87605
H         37.63314        24.64645         0.59138
H         38.61534        26.59511        -0.10863
H         38.67168        37.59229        -1.64366
H         37.65358        39.84101        -1.23347
H         39.75008        28.66668        -1.08873
H         40.95181        30.77266        -1.75264
H         40.94878        33.18293        -2.12346
H         39.68234        35.40568        -2.11049
