         671
 CSIRO Nanostructure Databank - Neutral Graphene Oxide Data Set
C          5.96551        31.73032         0.10658
C          5.94473        33.07183        -0.12142
C          7.85646        27.18126         0.30266
C          7.82372        28.45117        -0.23070
C          6.94201        29.54048         0.12073
C          8.32011        31.56042        -0.85185
C          7.11396        30.88707        -0.15474
C          8.36842        33.07245        -0.61403
C          7.15230        33.80337        -0.44246
C          8.36038        35.94234        -0.58820
C          7.15306        35.19932        -0.46197
C          8.36310        37.35728        -0.61014
C         10.82282        23.17290         0.28351
C         10.54513        24.42230         1.10363
C          9.23177        25.16352         0.86407
C         10.94585        27.40128        -0.16244
C          8.97696        26.26663         0.11304
C         10.95879        28.80051        -0.25725
C          9.78726        29.51698        -0.66316
C         10.84704        31.62869        -0.27877
C          9.65798        30.89231        -0.52417
C         10.84800        33.05343        -0.65187
C          9.56866        33.78988        -0.66329
C         10.83206        35.96380        -0.59643
C          9.59864        35.22006        -0.62454
C         10.81860        37.38933        -0.66331
C          9.56797        38.09731        -0.68300
C         10.78919        40.23246        -0.86988
C          9.58181        39.51602        -0.73281
C         10.82417        41.66087        -0.88473
C         13.32992        18.93239         0.07232
C         13.30926        20.32448         0.31993
C         12.10970        21.07854         0.16065
C         13.14913        23.08131         1.21884
C         11.98024        22.43943         0.53705
C         13.17909        24.58179         1.33133
C         11.85052        25.30813         1.13548
C         13.20880        27.46008         0.90110
C         12.11441        26.58701         0.30144
C         13.40935        28.84955         0.32498
C         12.09758        29.56553         0.13272
C         13.30741        31.69813         0.28751
C         12.07104        30.96279         0.03981
C         13.23867        33.16175         0.23798
C         12.11915        33.83397        -0.46667
C         13.29961        36.01728        -0.34327
C         12.07796        35.30329        -0.42927
C         13.31199        37.41874        -0.63827
C         12.04718        38.11784        -0.77381
C         13.24072        40.24959        -1.44978
C         12.02399        39.51027        -0.94727
C         13.28968        41.70344        -1.01613
C         12.03734        42.39129        -0.89080
C         13.22815        44.55258        -0.72593
C         12.03952        43.80699        -0.73872
C         13.20573        45.95977        -0.53155
C         15.71919        14.58570         0.15997
C         15.74271        16.01117         0.61993
C         14.51567        16.77289         0.21291
C         15.77079        18.87730         0.44584
C         14.51908        18.16896         0.23445
C         15.76471        20.28427         0.65391
C         14.53187        20.98093         0.68254
C         15.74706        23.18503         1.16875
C         14.47349        22.37359         1.16578
C         15.66929        24.61114         0.60615
C         14.45005        25.29913         1.11546
C         15.75396        27.50991         1.20806
C         14.48708        26.74311         1.29616
C         15.74715        28.89357         1.16473
C         14.42392        29.64942         1.16804
C         15.72899        31.79491         0.80753
C         14.48609        31.08110         0.68074
C         15.75798        33.19918         0.58016
C         14.51532        33.96017         0.41299
C         15.76189        36.03345        -0.15224
C         14.53730        35.34885        -0.08231
C         15.77840        37.45122        -0.45584
C         14.53784        38.09911        -0.74446
C         15.82652        40.28240        -1.06172
C         14.55382        39.49598        -1.22901
C         15.76781        41.75267        -0.98102
C         14.50342        42.42114        -0.96210
C         15.69773        44.58133        -0.86141
C         14.50101        43.86064        -0.84190
C         15.65377        46.09588        -0.98543
C         14.37008        46.74942        -0.45018
C         15.32162        48.93080         0.27712
C         14.23432        48.13446        -0.23513
C         15.75393        50.21261         0.12243
C         18.30637        10.35755         0.13461
C         18.32529        11.86011         0.15673
C         16.97961        12.49570        -0.04372
C         18.14169        14.66330        -0.40844
C         16.89784        13.89163        -0.11648
C         18.19830        16.08953        -0.02894
C         17.01485        16.75175         0.27195
C         18.22897        18.89743         0.23823
C         17.00406        18.17540         0.36434
C         18.20352        20.32238         0.38822
C         17.02825        20.98087         0.72822
C         18.21946        23.19832         0.58147
C         17.03456        22.45049         0.93928
C         18.22157        24.68521         0.37743
C         16.95508        25.39503         0.81165
C         18.24457        27.51013         1.13917
C         16.98866        26.75733         1.06693
C         18.23112        28.90444         1.27043
C         16.98391        29.63868         1.15765
C         18.19196        31.80982         1.17180
C         16.94128        31.04429         1.02908
C         18.20206        33.27616         0.91012
C         16.95767        33.95202         0.50508
C         18.24954        36.02735         0.14362
C         16.96253        35.31039         0.16911
C         18.25354        37.50324        -0.09266
C         16.98094        38.20777        -0.34473
C         18.20781        40.37310        -0.38849
C         17.02508        39.61195        -0.51911
C         18.22809        41.76500        -0.71439
C         16.97220        42.46282        -0.88159
C         18.20141        44.57685        -1.03679
C         16.96080        43.90084        -0.92017
C         18.20726        46.06990        -1.29010
C         17.00421        46.69242        -0.63220
C         18.36253        48.63372         0.11762
C         17.19818        47.76177         0.17933
C         18.33277        49.97016         0.49536
C         16.99678        50.69603         0.87580
C         18.34251        52.82698         1.31743
C         17.21428        52.14916         0.61933
C         18.40862        54.30835         1.02127
C         20.75063         6.12050         0.12782
C         20.71353         7.51897        -0.09220
C         19.51100         8.22986         0.00960
C         20.70656        10.35465        -0.46201
C         19.46414         9.64924        -0.12957
C         20.70274        11.74402        -0.63411
C         19.36565        12.41608        -0.83888
C         20.69520        14.65791        -0.51648
C         19.41389        13.94524        -0.74712
C         20.67648        16.06882        -0.34459
C         19.44331        16.79145        -0.15814
C         20.70162        18.93669        -0.06392
C         19.45045        18.20403         0.00186
C         20.71459        20.33753         0.00712
C         19.42195        21.11174        -0.03931
C         20.72530        23.23760         0.31829
C         19.50937        22.44260         0.70779
C         20.72110        24.61000         0.49273
C         19.47569        25.28457         1.03491
C         20.69601        27.45185         0.78806
C         19.49665        26.79406         0.96409
C         20.85467        28.88940         1.21408
C         19.53099        29.63968         1.35704
C         20.53502        31.80734         0.21486
C         19.52773        31.11529         1.15657
C         20.68031        33.28483         0.58031
C         19.50403        33.95558         0.73668
C         20.73555        36.15915         0.86386
C         19.43595        35.41845         0.83216
C         20.71589        37.57610         0.51636
C         19.43076        38.26554         0.41539
C         20.73162        40.43823        -0.00936
C         19.41920        39.78038         0.20670
C         20.72876        41.78832        -0.57131
C         19.45292        42.47403        -0.77619
C         20.68507        44.60073        -1.22738
C         19.43371        43.87945        -1.03206
C         20.71686        45.97982        -1.14890
C         19.50712        46.70846        -0.87260
C         20.83098        48.67878        -0.17995
C         19.56278        48.00850        -0.38702
C         20.81128        50.05884         0.27374
C         19.58355        50.71852         0.52223
C         20.81701        52.82791         0.87015
C         19.62502        52.10837         0.86898
C         20.83293        54.23431         1.43401
C         19.56421        54.98908         1.08746
C         20.86400        57.15422         1.39662
C         19.58832        56.49394         0.92232
C         20.87891        58.51751         1.57582
C         23.22527         3.33643         0.40903
C         22.00971         4.02353         0.38811
C         23.19132         6.11752        -0.20017
C         21.96334         5.41411         0.11253
C         23.16821         7.47198        -0.52299
C         21.94728         8.22083        -0.42040
C         23.13038        10.34457        -1.09240
C         21.91733         9.61162        -0.58962
C         23.14828        11.80564        -0.73550
C         21.92808        12.49484        -0.66857
C         23.16344        14.63685        -0.46252
C         21.91181        13.93763        -0.53957
C         23.15490        16.08291        -0.34410
C         21.92443        16.78624        -0.29889
C         23.16462        18.92721        -0.25580
C         21.93423        18.21407        -0.18953
C         23.16598        20.36101        -0.17502
C         21.93936        21.06241        -0.03557
C         23.15067        23.20503        -0.06355
C         21.94672        22.50681         0.03662
C         23.13767        24.69693        -0.26148
C         21.90833        25.37468         0.27730
C         23.15361        27.50145         0.34060
C         21.91567        26.75164         0.46969
C         23.11732        28.94892         0.24879
C         21.95395        29.63474         0.46840
C         23.16359        31.83748         0.25414
C         21.88463        31.06166        -0.06459
C         23.18672        33.24921         0.40026
C         21.94651        34.00898         0.59193
C         23.30512        36.07304         1.10877
C         21.98008        35.36968         0.84184
C         23.21552        37.63045         1.01474
C         21.87939        38.41314         0.95615
C         23.16235        40.30271        -0.28173
C         21.90210        39.74963         0.23098
C         23.19695        41.73493        -0.76523
C         21.91358        42.45670        -0.81843
C         23.23325        44.49397        -1.53305
C         21.89530        43.75611        -1.59364
C         23.23723        45.98263        -1.38166
C         21.96349        46.81542        -1.36856
C         23.28302        48.63967         0.09127
C         22.01327        48.03107        -0.46498
C         23.27391        50.14051        -0.03447
C         22.04329        50.79417         0.24924
C         23.26902        52.92497         0.42573
C         22.03993        52.19293         0.50991
C         23.27761        54.34191         0.75668
C         22.09374        55.00228         1.11191
C         23.33983        57.08587         1.47499
C         22.10726        56.40184         1.36222
C         23.36260        58.47022         2.06444
C         22.09415        59.24980         1.80633
C         23.37316        61.33041         1.98014
C         22.12675        60.62319         1.88172
C         24.42705         4.00259         0.18130
C         25.65900         6.08758        -0.22491
C         24.45013         5.39246        -0.11697
C         25.69830         7.47558        -0.55866
C         24.42786         8.13993        -1.04413
C         25.60821        10.34257        -0.80629
C         24.42622         9.63231        -0.81794
C         25.62023        11.76751        -0.77651
C         24.39872        12.50201        -0.69983
C         25.66972        14.69133        -0.70407
C         24.37319        13.92517        -0.57065
C         25.62628        16.02453         0.05418
C         24.38221        16.81326        -0.29086
C         25.68401        18.94124        -0.61973
C         24.39453        18.20329        -0.32610
C         25.65208        20.39910        -0.21288
C         24.40522        21.08754        -0.15886
C         25.62688        23.23777         0.00246
C         24.39609        22.50878        -0.09765
C         25.61076        24.69143         0.11989
C         24.42062        25.38263         0.14085
C         25.60185        27.58175         0.36102
C         24.37248        26.82822         0.26063
C         25.62045        28.94096         0.16014
C         24.35675        29.66212        -0.26432
C         25.61450        31.81912         0.18183
C         24.37287        31.13480         0.12417
C         25.62954        33.24740         0.19391
C         24.41200        33.95141         0.27946
C         25.71627        36.10499         0.20932
C         24.35508        35.46680         0.11347
C         25.81304        37.51008         0.74890
C         24.50751        38.32304         0.71451
C         25.76379        40.42745        -0.03295
C         24.48630        39.65300         0.01415
C         25.75136        41.93842        -0.11342
C         24.48284        42.48539        -0.74741
C         25.76836        44.48406        -1.33570
C         24.50407        43.79228        -1.15845
C         25.73661        45.95059        -1.55528
C         24.52949        46.59046        -0.92869
C         25.77559        48.79494        -0.66475
C         24.57587        47.97013        -0.37068
C         25.70051        50.17679        -0.55864
C         24.46570        50.86388        -0.21353
C         25.65508        53.08882        -0.23951
C         24.43431        52.28372        -0.02360
C         25.71801        54.43445         0.35124
C         24.51798        55.06751         0.74009
C         25.80171        57.14952         1.17982
C         24.54482        56.43251         1.16555
C         25.78309        58.57486         1.45023
C         24.62406        59.24042         1.74814
C         24.57280        60.67706         1.88799
C         26.86882         8.18430        -0.56053
C         28.09790        10.34297        -0.43925
C         26.92393         9.61191        -1.01801
C         28.14629        11.72053        -0.43879
C         26.94062        12.48608        -0.97306
C         28.14451        14.64501        -0.44333
C         26.87261        13.83793        -0.25228
C         28.12409        16.08739        -0.15830
C         26.93777        16.76790        -0.07583
C         28.10618        18.90775        -0.00486
C         26.93197        18.22681        -0.13493
C         28.13446        20.37571        -0.16130
C         26.84238        21.10980        -0.06387
C         28.07412        23.23774         0.48521
C         26.83221        22.52707         0.08935
C         28.14737        24.70321         0.42047
C         26.91072        25.47417         0.01500
C         28.10789        27.59122         0.54766
C         26.83469        26.81729         0.76034
C         28.11620        28.94151         0.34052
C         26.85947        29.68293         0.22212
C         28.15409        31.80313         0.40525
C         26.85517        31.06793         0.19567
C         28.08701        33.24526        -0.00884
C         26.90873        33.95301         0.05538
C         28.16983        36.13609         0.34522
C         26.90264        35.41950         0.13494
C         28.26085        37.49861         0.55603
C         27.02819        38.28069         0.17443
C         28.25905        40.63284         0.55145
C         26.95804        39.75888         0.65779
C         28.25704        41.77800        -0.46197
C         27.04311        42.47352        -0.72245
C         28.26111        44.49075        -1.62537
C         26.99693        43.81395        -1.21262
C         28.34676        46.03198        -1.87386
C         27.00685        46.74713        -1.60784
C         28.22285        48.79437        -0.91651
C         27.00218        48.13218        -1.07182
C         28.19386        50.25419        -0.50643
C         26.92834        50.94231        -1.02876
C         28.21761        53.09846        -0.33498
C         26.92889        52.43151        -0.68526
C         28.16889        54.45370         0.11239
C         26.96755        55.12032         0.42014
C         26.97152        56.49417         0.84042
C         29.27963        12.43031         0.03480
C         30.59491        14.63489         0.30622
C         29.46976        13.85143        -0.18759
C         30.64386        16.02988         0.23311
C         29.44996        16.82076        -0.29844
C         30.64500        18.91958         0.39835
C         29.34753        18.15444         0.44456
C         30.67331        20.31903         0.36268
C         29.42964        21.07854         0.05754
C         30.63540        23.25612         0.46248
C         29.38731        22.49414         0.52171
C         30.61567        24.63147         0.64045
C         29.34206        25.34958         0.61320
C         30.59662        27.43861         0.13531
C         29.38297        26.85066         0.85490
C         30.61475        28.94423         0.09264
C         29.38092        29.66486         0.12497
C         30.58127        31.74973        -0.63416
C         29.36753        31.03690        -0.07344
C         30.68684        33.18264        -0.04904
C         29.37295        33.93843        -0.22089
C         30.71103        36.04874         0.48387
C         29.41415        35.40888         0.03686
C         30.68023        37.53791         0.24526
C         29.50963        38.22698         0.41184
C         30.75321        40.37955        -0.03848
C         29.56416        39.74001         0.65067
C         30.74402        41.76174        -0.41147
C         29.51525        42.41532        -0.70755
C         30.82434        44.55705        -1.29350
C         29.54811        43.75077        -1.35852
C         30.73907        46.01842        -1.04388
C         29.53162        46.70004        -1.17973
C         30.68039        48.83676        -0.59178
C         29.46674        48.10780        -0.93671
C         30.67083        50.22738        -0.47778
C         29.47098        51.00082        -0.95130
C         29.41245        52.41811        -0.43983
C         31.80300        16.74973         0.58055
C         33.07568        18.89358         0.68977
C         31.86363        18.18605         0.55575
C         33.12059        20.32336         0.69921
C         31.87865        21.02766         0.50564
C         33.16513        23.24122         0.65333
C         31.89098        22.49706         0.35029
C         33.09871        24.70317         0.87682
C         31.86879        25.35267         0.78678
C         33.13146        27.55175         0.67960
C         31.82599        26.82048         0.77668
C         33.11516        28.86100        -0.02732
C         31.84247        29.63876        -0.06732
C         33.16531        31.68375        -0.60206
C         31.87543        30.98869        -0.41666
C         33.18867        33.22489        -0.62510
C         31.85756        33.99967        -0.66945
C         33.16348        36.04291        -0.01213
C         31.94605        35.37115        -0.04965
C         33.19418        37.47451         0.04392
C         31.91522        38.18426        -0.29868
C         33.20471        40.33410        -0.14442
C         31.94694        39.66893        -0.10046
C         33.20014        41.76164        -0.21872
C         32.01800        42.42212        -0.52228
C         33.27981        44.61913        -0.44962
C         32.08623        43.85235        -0.89545
C         33.17031        46.03363        -0.42574
C         31.94200        46.71395        -0.62605
C         31.88459        48.10410        -0.41515
C         34.31887        21.03151         0.92981
C         35.59766        23.22867         0.96608
C         34.32313        22.49508         1.27629
C         35.61760        24.63741         0.91638
C         34.35488        25.40254         0.93417
C         35.62496        27.51624         0.67777
C         34.39677        26.79484         0.75775
C         35.66648        28.86379         0.29798
C         34.44213        29.55218        -0.16690
C         35.62806        31.71417        -0.13970
C         34.43673        31.01349        -0.26696
C         35.64700        33.16486        -0.09417
C         34.42166        33.90593        -0.19054
C         35.63007        36.03644         0.13302
C         34.41345        35.30718        -0.02342
C         35.64455        37.43326         0.08523
C         34.40579        38.17316         0.01685
C         35.68765        40.31868        -0.12443
C         34.42114        39.60896        -0.07173
C         35.70597        41.70339        -0.14445
C         34.45794        42.48295         0.19404
C         34.44484        43.95190        -0.12256
C         36.83075        25.34759         0.90657
C         38.12515        27.50889         0.77234
C         36.86185        26.82474         1.19463
C         38.15137        28.86706         0.41374
C         36.88826        29.58935         0.22871
C         38.10323        31.71635        -0.05108
C         36.88102        30.98779        -0.00124
C         38.09749        33.11756         0.04176
C         36.86655        33.83019         0.09971
C         38.15090        36.01452         0.07360
C         36.89002        35.28825         0.47932
C         38.13174        37.38273        -0.06894
C         36.90428        38.15458        -0.01889
C         36.90317        39.53248        -0.15097
C         39.35761        29.55806         0.22390
C         40.60950        31.74807         0.06815
C         39.38382        30.96113        -0.31007
C         40.58608        33.09260         0.17873
C         39.35338        33.85935         0.08706
C         39.36304        35.23962         0.04396
O         25.28503        39.73784        -1.21276
O         13.54128        33.79070         1.51847
O         19.82886        35.98284         2.11367
O         31.78954        44.13312        -2.31366
O         12.42631        25.20421         2.45050
O         29.35716        34.89023        -1.32751
O          9.96223        26.67195        -0.83741
O         11.77554        33.29237        -1.78390
O         32.83731        22.90794        -0.72190
O         23.10685        40.60525        -1.71833
O         16.54356        22.96429         2.33765
O         19.14091        39.19422         1.51843
O         33.79368        28.84327        -1.31825
O         33.32831        32.45265        -1.85006
O         23.96609        38.33009         2.06254
O         28.95044        20.85969        -1.31396
O         15.44922        39.70106        -2.37973
O         23.42499        45.35982        -2.70421
O         16.18436        48.12688         1.07949
O         28.98140        14.29959        -1.53048
O         28.93220        43.74981        -2.69160
O         28.25215        41.51787         1.68712
O         26.13990        46.56096        -2.80968
O         32.35919        27.53829         1.92682
O         26.12295        53.15131        -1.67555
O         19.78487        31.84507        -0.99353
O         19.75513        30.59030         2.49318
O         18.60120        14.53942        -1.82117
O          8.74897        28.77613        -1.24211
O         13.51075        27.29818         2.28827
O         18.09597        32.76027         2.29821
O         24.78496        46.77179         0.49593
O         13.67306        22.43643         2.41441
O         28.61541        22.68114         1.75658
O         18.61598        36.57457        -1.17491
O         25.77547        18.94836        -2.08240
H         26.64720        19.32721        -2.32708
O         29.94680        39.78320         2.05639
H         29.48696        40.60652         2.39906
O         31.62270        34.27851        -2.06203
H         31.29636        33.44887        -2.48644
O         21.96140        30.90021        -1.51081
H         21.06980        31.24603        -1.83773
O         20.83023        54.07970         2.88751
H         19.99827        53.59776         3.12153
O         23.70435        35.74041         2.44346
H         24.47297        36.33111         2.66223
O         14.00708        28.68088        -0.98935
H         13.45603        28.04194        -1.49443
O         23.19330        48.43645         1.54175
H         23.64460        47.58195         1.73866
O         30.97284        33.04805         1.35233
H         30.18232        32.64912         1.79433
O         21.54614        38.72330         2.34198
H         21.46220        37.87824         2.83452
O         29.65692        17.07826        -1.69965
H         29.62952        16.21017        -2.16227
O         25.84827        15.04046        -2.08992
H         26.17353        14.24177        -2.57275
O         27.06398        25.81199        -1.39174
H         27.29761        25.00030        -1.88771
O         18.80059        12.27405         1.48836
H         18.13488        11.98662         2.14839
O         18.27539        52.69095         2.76259
H         17.81096        51.83624         2.95123
O         28.64736        46.22566        -3.26747
H         27.82037        46.05323        -3.77126
O         27.17406        38.17359        -1.25791
H         26.38644        38.54623        -1.71967
O         23.06920        24.89337        -1.72596
H         23.94467        24.65698        -2.09995
O         25.46231        15.73804         1.48456
H         25.50506        16.58757         1.97245
O         26.92433        50.84249        -2.47856
H         26.37807        51.59923        -2.80156
O         34.09660        22.59335         2.73958
H         34.87867        22.20810         3.18816
O         19.41671        56.82289        -0.47545
H         20.19315        56.48384        -0.96666
O         26.76310        13.48427         1.13925
H         26.34700        14.23589         1.62948
O         13.02603        40.31959        -2.89815
H         13.92465        40.29829        -3.30823
O         18.35618        24.89695        -1.06119
H         17.53441        24.54810        -1.47768
O         18.94977        12.04614        -2.16928
H         18.54542        12.85201        -2.57309
O         30.78101        35.88175         1.94299
H         30.35984        36.66546         2.35808
O         29.59432        27.00852         2.28124
H         28.79226        26.64925         2.72550
O         29.57434        51.04482        -2.40047
H         28.65784        50.98960        -2.77487
O         29.13087        17.80550         1.84915
H         29.25458        18.61441         2.38887
O          8.08839        31.38856        -2.27576
H          8.12990        30.42290        -2.45779
O         10.34515        23.90258         2.44090
H         11.21511        23.91685         2.90845
O         22.99701        10.30735        -2.58985
H         23.58816        11.00503        -2.94776
O         15.51719        24.39407        -0.86067
H         15.12191        25.20933        -1.24148
O         15.72161        15.94353         2.10992
H         15.68157        16.86639         2.44208
O         23.39010        58.26244         3.52545
H         23.36585        59.15049         3.94142
O         24.34434        29.63384        -1.71769
H         23.50070        30.08182        -1.98939
O         39.46523        30.79181        -1.78265
H         38.64344        30.33763        -2.06856
O         21.83923        47.39248        -2.70857
H         22.25909        46.75709        -3.33417
O         26.10898        37.23059         2.15100
H         26.23590        38.11386         2.58776
O         18.13630        46.25216        -2.75098
H         18.93239        45.82916        -3.13922
O         25.75868        42.44290         1.25572
H         26.68141        42.24116         1.61166
O         26.74377        26.49893         2.18439
H         26.43722        27.30300         2.65443
O         27.08007         9.60588        -2.49425
H         26.38076         8.99643        -2.83356
O         13.96200        29.81253         2.52532
H         13.91898        28.92222         2.94972
O         24.43780         7.97638        -2.50750
H         23.73369         8.58204        -2.85440
O         15.47700        46.35165        -2.42036
H         16.35322        46.22012        -2.86130
O         19.62739        22.13397         2.12690
H         19.50476        22.98815         2.61217
O         27.09539        12.65189        -2.40772
H         27.21849        11.74563        -2.78032
O         28.12269        50.32350         0.93693
H         28.91772        49.88079         1.30248
O         36.91941        35.27381         1.96041
H         36.94763        36.20806         2.25921
O         30.36355        31.89638        -2.07499
H         30.36907        31.00260        -2.47801
O         21.39495        28.71494         2.57137
H         21.10158        29.50716         3.08486
O         12.69079        26.09184        -0.97142
H         11.93762        25.78402        -1.52591
O         19.37640        24.93824         2.45416
H         19.99269        25.51650         2.95275
O         36.80649        26.94293         2.68228
H         35.90184        26.68072         2.96036
O         26.64343        39.72610         2.06598
H         27.17882        40.47939         2.45763
O         21.69418        43.36374        -2.98479
H         22.28206        43.92505        -3.53810
O         30.53560        26.97250        -1.23951
H         31.27636        27.37428        -1.74116
O         16.80437        50.46667         2.29969
H         16.62388        49.50179         2.39988
O         28.37224        31.88110         1.88682
H         27.58466        32.32343         2.27352
O         31.81906        38.01572        -1.76616
H         30.90965        38.26217        -2.04139
O         34.41999        42.45496         1.68548
H         34.31049        41.51693         1.95392
O         19.19325        21.46521        -1.43633
H         19.26502        20.64945        -1.97512
O         23.81817        35.75602        -1.20991
H         24.40641        35.34347        -1.87724
H          5.04789        31.23186         0.45593
H          5.01755        33.64122         0.03936
H          7.11691        26.91171         1.07030
H          6.01323        29.26038         0.64656
H          6.20161        35.74022        -0.34763
H          7.40338        37.89432        -0.58066
H          9.98063        22.66669        -0.21289
H          8.44888        24.86721         1.57912
H          8.62917        40.06464        -0.69147
H          9.87479        42.21236        -0.80913
H         12.39043        18.41469        -0.17058
H         11.22640        20.56676        -0.24947
H         11.07703        44.33025        -0.63410
H         12.23149        46.43774        -0.34068
H         14.80059        14.01143         0.35927
H         13.57192        16.22954         0.05728
H         13.22777        48.57917        -0.30325
H         15.19857        50.92762        -0.50025
H         17.40446         9.82542         0.47647
H         16.06719        11.91042         0.15276
H         16.94867        52.52407        -0.38284
H         17.46213        54.83852         0.83318
H         19.81429         5.58728         0.35086
H         18.58449         7.68806         0.25266
H         18.71036        56.94009         1.45434
H         19.94192        59.08620         1.46880
H         23.23499         2.25976         0.62984
H         21.07194         3.48876         0.59688
H         23.35017        62.42659         2.05580
H         21.19323        61.20064         1.80977
H         25.37866         3.45452         0.23689
H         26.60649         5.56079        -0.03413
H         26.72305        59.13668         1.33194
H         25.51436        61.24524         1.85599
H         27.81036         7.68651        -0.27946
H         28.97036         9.76131        -0.10375
H         29.12120        54.98411         0.26358
H         27.92686        57.03972         0.85065
H         30.04903        11.88454         0.60161
H         31.41620        14.09695         0.80427
H         31.60696        50.75747        -0.24349
H         30.35254        52.94341        -0.20912
H         32.71835        16.19139         0.83028
H         34.01382        18.33254         0.81517
H         34.04962        46.62641        -0.13076
H         32.80244        48.64554        -0.14262
H         35.24455        20.45800         1.09796
H         36.54579        22.67325         0.89258
H         36.67013        42.23404        -0.17149
H         35.33727        44.53659         0.15197
H         37.77901        24.78790         0.91195
H         39.07678        26.96746         0.88615
H         39.07223        37.92173        -0.26390
H         37.86194        40.06371        -0.25339
H         40.31007        29.01296         0.31054
H         41.56064        31.20158         0.15566
H         41.51719        33.64582         0.37656
H         40.32548        35.77203        -0.01277
