         210
 CSIRO Nanostructure Databank - Neutral Graphene Oxide Data Set
C         30.31777        31.86024        -0.32135
C         30.39344        33.08590        -0.55840
C         30.48164        36.18449        -0.98682
C         30.44301        37.40549        -1.18525
C         30.48871        40.29250        -0.48689
C         30.48619        41.37372         0.13990
C         32.68970        29.05379         0.05879
C         31.55666        29.63395         0.12364
C         32.71353        31.74197        -0.24222
C         31.44750        31.01352        -0.16084
C         32.75834        33.12877        -0.46501
C         31.54189        33.92181        -0.61239
C         32.84180        36.03987        -0.81888
C         31.57783        35.29798        -0.77210
C         32.87321        37.40562        -1.10154
C         31.63715        38.20031        -1.62459
C         32.92043        40.34099        -0.60521
C         31.62603        39.64301        -1.12499
C         32.85893        41.52389         0.30563
C         31.59039        42.08044         0.68057
C         32.76937        43.77474         1.94421
C         31.74325        43.21322         1.53190
C         35.53440        27.43494        -0.25807
C         35.16769        28.79453        -0.46228
C         33.98150        29.48473        -0.16101
C         35.26941        31.71959        -0.40397
C         34.01861        31.02241         0.10955
C         35.27755        33.10209        -0.51989
C         34.01888        33.85899        -0.50718
C         35.33789        35.95263        -0.32933
C         34.04320        35.24341        -0.62217
C         35.37666        37.39385        -0.74417
C         34.17880        38.16038        -1.22949
C         35.33927        40.15809        -0.19555
C         34.15678        39.55026        -0.60689
C         35.32399        41.48021         0.41658
C         34.08882        42.05339         0.80148
C         35.28666        44.09262         1.70167
C         34.14658        43.14242         1.90141
C         35.56107        45.29409         2.24073
C         37.89055        27.36798         0.47442
C         36.59505        26.90371         0.15469
C         38.18672        28.58232        -0.23612
C         36.32250        29.56379        -0.81914
C         37.78650        31.55017        -0.64133
C         36.48075        30.93888        -0.59702
C         37.77357        32.99411        -0.98429
C         36.53152        33.79853        -0.76867
C         37.80934        35.93749        -0.84646
C         36.57979        35.18119        -0.72886
C         37.82363        37.31313        -0.67904
C         36.58057        38.06279        -0.61474
C         37.81819        40.16638        -0.11426
C         36.60030        39.48819        -0.37411
C         37.79895        41.53197         0.36630
C         36.57039        42.14234         0.65635
C         37.84213        44.07988         1.65804
C         36.57142        43.62960         0.92605
C         37.86515        45.58140         1.98678
C         36.60461        46.07953         2.27238
C         39.97631        25.06881         2.45874
C         38.94134        25.72276         2.10132
C         40.02184        27.78527         1.74319
C         38.80804        26.95589         1.47780
C         40.07089        29.24801         1.26305
C         39.08877        29.55262         0.15545
C         40.28440        31.65210        -0.28708
C         39.01498        30.91490        -0.32496
C         40.33979        33.00144        -0.68869
C         39.09172        33.70632        -1.09228
C         40.36606        35.94202        -0.89258
C         39.08047        35.21234        -1.12098
C         40.33540        37.38524        -0.60121
C         39.07249        38.13009        -0.94328
C         40.27451        40.19612        -0.14362
C         39.05425        39.50961        -0.33077
C         40.27669        41.60493         0.16799
C         39.05457        42.25627         0.48509
C         40.29443        44.32958         1.00226
C         39.09394        43.59150         0.96854
C         40.32859        45.69187         1.51278
C         39.10819        46.26778         2.01557
C         40.36460        48.29466         2.46057
C         39.32423        47.59524         2.44851
C         42.56525        24.95544         2.25347
C         41.27598        25.52715         2.29252
C         42.62990        27.68485         1.68696
C         41.34725        27.03178         2.08311
C         42.66167        29.04044         1.20931
C         41.45438        29.74876         0.87076
C         42.79882        31.54954        -0.13175
C         41.48439        30.96428         0.17304
C         42.83608        33.05116        -0.53985
C         41.55604        33.75881        -0.62028
C         42.79389        35.86878        -0.35964
C         41.59094        35.16376        -0.60890
C         42.73845        37.30731        -0.07851
C         41.49488        38.06262        -0.31564
C         42.75170        40.22053        -0.26944
C         41.51614        39.50223        -0.21601
C         42.73149        41.67018        -0.16506
C         41.50038        42.32886         0.17651
C         42.71215        44.46633         0.44219
C         41.50798        43.71923         0.52107
C         42.72243        45.85228         0.85730
C         41.55134        46.44784         1.45896
C         42.84691        48.46740         1.77027
C         41.59894        47.83270         1.93483
C         43.62033        25.53350         1.90400
C         45.08646        27.55492         1.46852
C         43.83724        26.92928         1.68224
C         45.14724        28.95873         1.26669
C         43.94456        29.67591         1.01689
C         45.23189        31.72194         0.35301
C         44.02360        31.00456         0.46838
C         45.28359        33.08777        -0.07279
C         44.07647        33.79003        -0.31056
C         45.28810        35.94857        -0.34409
C         44.04590        35.20549        -0.27905
C         45.26902        37.34023        -0.43567
C         44.05591        38.09261        -0.10460
C         45.17890        40.22727        -0.81312
C         43.97259        39.53019        -0.39527
C         45.15581        41.77552        -0.72384
C         43.92126        42.41410        -0.24748
C         45.15136        44.53630        -0.11243
C         43.93479        43.82259         0.02831
C         45.04193        46.07394        -0.18406
C         43.91865        46.59763         0.65374
C         43.79781        47.88269         1.17677
C         47.47441        27.55561         1.36263
C         46.38662        26.95365         1.49034
C         47.73951        28.93860         1.21595
C         46.44664        29.67561         1.29358
C         47.78191        31.74722         0.47273
C         46.49091        31.14172         0.86004
C         47.77468        33.11846         0.06652
C         46.53480        33.80882        -0.10550
C         47.77110        35.90025        -0.50424
C         46.54072        35.21210        -0.36712
C         47.77891        37.32402        -0.89323
C         46.45574        38.08105        -0.87624
C         47.68249        40.26188        -0.79592
C         46.48861        39.55255        -0.77155
C         47.67328        41.72297        -0.67242
C         46.45172        42.43988        -0.54357
C         47.65793        44.54027        -0.22435
C         46.40151        43.84555        -0.28256
C         47.44941        45.94072        -0.01494
C         46.41679        46.59369         0.18449
C         50.23964        29.05392         0.97743
C         48.93297        29.61106         0.98478
C         50.25589        31.68919         0.36173
C         48.99009        31.03249         0.62773
C         50.24876        33.09391         0.04310
C         49.01481        33.81559        -0.08416
C         50.23941        35.95905        -0.50555
C         49.00840        35.22020        -0.36069
C         50.23272        37.39903        -0.67084
C         49.00852        38.12918        -0.77241
C         50.18738        40.29719        -0.80314
C         48.96118        39.54519        -0.80687
C         50.18262        41.74206        -0.74311
C         48.91742        42.43103        -0.61640
C         50.16396        44.43014        -0.44070
C         48.86397        43.86453        -0.42512
C         51.35037        29.58105         0.76311
C         52.65202        31.75095         0.19529
C         51.51269        30.95921         0.44254
C         52.58792        32.98201        -0.05739
C         51.46966        33.82654        -0.17217
C         52.59473        36.06657        -0.57328
C         51.46036        35.22384        -0.42546
C         52.59201        37.30786        -0.71508
C         51.44988        38.14992        -0.75650
C         52.53763        40.42345        -0.88751
C         51.42172        39.55978        -0.83882
C         52.58867        41.67536        -0.85783
C         51.43348        42.48458        -0.74812
C         51.27827        43.88978        -0.60629
O         37.40304        28.86296        -1.38036
O         42.96621        31.97086        -1.51473
O         38.42821        33.19290        -2.29768
O         45.00795        41.07609        -1.99640
O         32.34884        40.56077        -1.96120
O         43.42376        37.68509         1.15945
O         46.45258        30.75808         2.28062
O         40.55401        27.73154         3.09741
O         47.03496        37.58103        -2.13317
O         39.83787        35.70724        -2.28287
O         34.13273        31.12503         1.56352
H         33.33726        30.70505         1.95715
O         34.37342        42.44239         3.12611
H         34.66290        43.08277         3.80924
O         35.39746        36.00969         1.15479
H         35.33917        35.08742         1.48647
O         44.76246        46.43215        -1.53808
H         45.49336        46.11085        -2.10612
O         36.55407        44.28431        -0.35221
H         35.79318        43.95399        -0.87322
O         39.65324        30.05381         2.39976
H         40.05999        29.64645         3.19924
O         31.68856        38.19790        -3.04501
H         32.60312        38.46140        -3.31074
O         34.37914        38.36047        -2.68834
H         35.19223        38.89818        -2.80700
O         39.09358        38.33833        -2.40031
H         39.29970        37.45492        -2.79899
O         37.81389        43.41064         2.95196
H         38.63016        43.64629         3.44046
