         200
 CSIRO Nanostructure Databank - Neutral Graphene Oxide Data Set
C        -10.88996         0.65279        -0.81716
C         -9.69616         1.41423        -0.57515
C         -8.43813         0.73250        -0.51384
C         -7.26319         1.39642        -0.14138
C         -6.02924         0.66010         0.09164
C         -4.89873         1.33447         0.61872
C         -3.68558         0.64214         0.87799
C         -2.46135         1.37538         1.08262
C         -1.15578         0.67639         1.40591
C          0.01909         1.35763         0.74563
C          1.20157         0.55052         0.46855
C          2.48657         1.28165         0.11589
C          3.75972         0.61352         0.36376
C          4.94646         1.32134         0.17718
C          6.20007         0.61978         0.18807
C          7.40482         1.32593        -0.05824
C          8.64286         0.61769        -0.14039
C          9.85479         1.33871        -0.36551
C         11.08885         0.59859        -0.47680
C         -9.72775         2.81381        -0.40912
C         -8.56182         3.53538        -0.11197
C         -7.31475         2.82254         0.10672
C         -6.19983         3.50756         0.56803
C         -5.00016         2.75557         0.93522
C         -3.67999         3.53365         1.09200
C         -2.43603         2.76532         0.95836
C         -1.22307         3.46934         0.62611
C          0.00560         2.71375         0.45182
C          1.22694         3.42253         0.08621
C          2.45667         2.74397         0.04174
C          3.68210         3.44436        -0.12829
C          4.92077         2.73952        -0.10107
C          6.14014         3.44669        -0.26673
C          7.38391         2.74394        -0.24725
C          8.60670         3.45743        -0.44182
C          9.82677         2.73688        -0.48622
C         -8.55457         4.95981        -0.05133
C         -7.42339         5.68224         0.31336
C         -6.26001         4.96599         0.96583
C         -4.93530         5.70137         0.79559
C         -3.69412         4.98597         0.83806
C         -2.47022         5.60183         0.53416
C         -1.27101         4.84005         0.34627
C         -0.08603         5.50671        -0.23520
C          1.21051         4.82616        -0.17202
C          2.40709         5.54291        -0.39943
C          3.65914         4.85610        -0.34148
C          4.88754         5.56222        -0.48794
C          6.12058         4.86399        -0.45158
C          7.36248         5.57759        -0.59708
C          8.56901         4.87370        -0.59660
C         -7.36844         7.08832         0.14666
C         -6.17459         7.79904         0.30052
C         -4.95615         7.08821         0.60753
C         -3.71704         7.86373         0.70222
C         -2.38694         7.06794         0.58497
C         -1.22568         7.79157         0.10211
C         -0.07398         7.03935        -0.39246
C          1.21593         7.72327        -0.49401
C          2.40489         6.98286        -0.59738
C          3.65354         7.66998        -0.77292
C          4.86691         6.98714        -0.69041
C          6.12818         7.69957        -0.76455
C          7.32114         7.01043        -0.72133
C         -6.11752         9.22229         0.07952
C         -4.94339         9.92800         0.07605
C         -3.67679         9.28238         0.30615
C         -2.45918         9.92671         0.18626
C         -1.20632         9.20678         0.10388
C          0.01094         9.87713        -0.16151
C          1.23090         9.17593        -0.41641
C          2.42662         9.85206        -0.63891
C          3.62112         9.12296        -1.18599
C          4.92812         9.82911        -0.94804
C          6.08645         9.15516        -0.81136
C        -10.87640        -0.71530        -0.95370
C         -9.65046        -1.46055        -0.95857
C         -8.39627        -0.68502        -0.90201
C         -7.09421        -1.44639        -0.69242
C         -5.95910        -0.74239        -0.08352
C         -4.81610        -1.48310         0.33052
C         -3.67525        -0.78081         0.78422
C         -2.47897        -1.51640         1.25192
C         -1.16346        -0.83073         1.20903
C          0.02110        -1.53379         1.14160
C          1.28779        -0.86121         0.91783
C          2.49342        -1.53529         0.90916
C          3.78788        -0.75086         0.98735
C          5.03269        -1.51008         0.63138
C          6.20635        -0.81414         0.35480
C          7.46124        -1.52418         0.20169
C          8.65500        -0.80969        -0.04040
C          9.89502        -1.52332        -0.21808
C         11.10539        -0.76416        -0.41722
C         -9.60208        -2.84355        -1.01809
C         -8.37872        -3.58453        -0.87069
C         -7.15675        -2.91049        -0.61049
C         -5.97488        -3.62793        -0.33415
C         -4.79624        -2.93667         0.15892
C         -3.66054        -3.67463         0.50596
C         -2.51741        -3.02919         1.17902
C         -1.22441        -3.78096         1.26690
C          0.08097        -3.00311         1.30152
C          1.32856        -3.72127         0.98802
C          2.54811        -2.99064         0.93095
C          3.76899        -3.68996         0.81551
C          5.07804        -2.96003         1.03070
C          6.28178        -3.67960         0.48342
C          7.46904        -2.95459         0.23289
C          8.69549        -3.65758        -0.04257
C          9.89615        -2.91595        -0.22929
C         -8.38315        -5.00198        -0.84551
C         -7.20285        -5.74773        -0.75274
C         -5.95552        -5.03989        -0.55536
C         -4.68526        -5.69378        -0.45703
C         -3.56296        -5.06929         0.17736
C         -2.37141        -5.81955         0.37207
C         -1.16013        -5.18162         0.82424
C          0.06067        -5.84895         0.83367
C          1.31467        -5.13225         0.89768
C          2.54909        -5.82942         0.69435
C          3.77284        -5.10478         0.67035
C          5.01956        -5.80743         0.44172
C          6.25396        -5.08042         0.33785
C          7.47495        -5.78130         0.02737
C          8.67709        -5.06289        -0.11306
C         -7.31732        -7.20935        -0.65649
C         -6.35324        -8.05213        -1.13937
C         -4.49239        -6.98631        -0.98878
C         -3.45411        -7.83289        -0.59475
C         -2.32036        -7.21659         0.03037
C         -1.14774        -7.96823         0.19942
C          0.05951        -7.35624         0.86067
C          1.34629        -7.98711         0.41503
C          2.54948        -7.25801         0.45633
C          3.78345        -7.93046         0.20454
C          5.01346        -7.20246         0.21321
C          6.24846        -7.89938        -0.05492
C          7.44431        -7.19427        -0.12979
C         -6.06699        -9.45807        -0.91667
C         -4.79637        -9.97102        -0.89974
C         -3.52290        -9.26632        -0.76649
C         -2.35276        -9.98922        -0.55142
C         -1.12873        -9.34873        -0.16444
C          0.09675       -10.05037        -0.13212
C          1.33546        -9.36874         0.06674
C          2.57028       -10.03077        -0.14544
C          3.78144        -9.33573        -0.06561
C          5.03845       -10.01017        -0.28432
C          6.21502        -9.32434        -0.27509
O         -0.05717        -7.70118         2.30156
H         -0.77376        -7.14540         2.67695
O         -0.54139        -3.52702         2.52808
O         -2.90016         7.57971         1.86829
O         -5.38402        -7.43397        -1.96510
O          5.26313        -2.94350         2.49935
H          4.62720        -2.27344         2.85298
O          3.42826         9.12871        -2.65764
H          2.60718         8.62254        -2.83966
O         -2.81573        -2.33572         2.43478
O         -0.96682         0.85096         2.85449
H         -1.64649         0.30927         3.31047
O          1.65649         0.64139        -0.94010
O         -7.47613        -0.93710        -2.02184
O         -4.46860         3.13083         2.26460
O         -6.54056         4.97402         2.40771
H         -5.83072         4.42691         2.82456
O          3.91955        -0.49042         2.46825
H          4.72470         0.06010         2.58880
O         -0.37848         6.14083        -1.53125
H         12.05307        -1.31195        -0.52657
H         12.02263         1.15843        -0.63371
H         10.76765         3.28427        -0.64738
H          9.51537         5.42054        -0.72414
H          8.27229         7.56164        -0.77487
H          7.03770         9.69886        -0.70377
H          4.92556        10.92936        -0.97520
H          2.44229        10.95227        -0.61442
H          0.02369        10.97675        -0.18131
H         -2.44108        11.00800        -0.01918
H         -4.95148        11.00758        -0.13426
H         -7.06361         9.74569        -0.12323
H         -8.27136         7.61925        -0.19295
H         -9.45306         5.50248        -0.38505
H        -10.68293         3.34918        -0.51655
H        -11.84884         1.19091        -0.84601
H        -11.82296        -1.26260        -1.07451
H        -10.54165        -3.40982        -1.10932
H         -9.34244        -5.52952        -0.95388
H         -8.19884        -7.61418        -0.13678
H         -6.91120       -10.15128        -0.77525
H         -4.71324       -11.06618        -0.79757
H         -2.35763       -11.08369        -0.67010
H          0.11488       -11.11750        -0.39946
H          2.57305       -11.10341        -0.39024
H          5.02559       -11.09427        -0.46949
H          7.16613        -9.84678        -0.45482
H          8.38065        -7.72901        -0.34881
H          9.61163        -5.60818        -0.31242
H         10.83730        -3.45893        -0.40331
