         630
 CSIRO Nanostructure Databank - Neutral Graphene Oxide Data Set
C         22.94584        27.36632        -0.10773
C         22.89798        28.71551        -0.15872
C         22.84240        31.76321         0.23976
C         22.89645        33.09511         0.46448
C         22.96276        36.06576         0.52361
C         22.97808        37.48373         0.59552
C         23.09065        40.43692         0.89446
C         23.09118        41.81696         0.76044
C         23.01077        44.67151         0.15443
C         22.98917        46.04726         0.01112
C         25.43185        24.55383        -0.16854
C         24.22775        25.24738        -0.14800
C         25.43352        27.37070        -0.10902
C         24.20650        26.65204        -0.12424
C         25.43260        28.80567        -0.07302
C         24.13392        29.51672        -0.24017
C         25.34152        31.70943         0.35863
C         24.08211        31.01386        -0.06217
C         25.35514        33.18874         0.28288
C         24.13682        33.85819         0.38472
C         25.40036        35.99157         0.16968
C         24.11295        35.30257         0.38169
C         25.39699        37.49787         0.22081
C         24.14964        38.21676         0.51544
C         25.40373        40.34356         0.10682
C         24.21814        39.66806         0.54552
C         25.37402        41.74969        -0.07126
C         24.21314        42.49336         0.23232
C         25.40311        44.60561        -0.37276
C         24.20471        43.93150        -0.00290
C         25.40155        46.02980        -0.42592
C         24.18703        46.75213        -0.23562
C         25.39032        48.85216        -0.40098
C         24.20412        48.17779        -0.28668
C         27.97725        23.10541        -0.21315
C         27.93091        24.51878        -0.16320
C         26.66881        25.23258        -0.14653
C         27.90482        27.38247        -0.05349
C         26.67096        26.66026        -0.10084
C         27.89098        28.80897         0.03160
C         26.63260        29.50108         0.04263
C         27.88665        31.72330         0.18316
C         26.63239        30.95687         0.33672
C         27.88764        33.12372         0.20903
C         26.63112        33.87425         0.29589
C         27.97155        35.95271         0.67881
C         26.66425        35.25513         0.33471
C         27.97065        37.47509         0.50000
C         26.67560        38.23194         0.43916
C         27.87032        40.25507        -0.29410
C         26.65957        39.63234        -0.00964
C         27.80660        41.60736        -0.87966
C         26.52166        42.40910        -0.72730
C         27.78799        44.57478        -1.03693
C         26.60565        43.89173        -0.72761
C         27.84268        46.01348        -0.86193
C         26.62978        46.73347        -0.60277
C         27.88482        48.84518        -0.44052
C         26.63531        48.15417        -0.50646
C         27.93194        50.24333        -0.15322
C         30.41543        23.10640        -0.14931
C         29.18058        22.42280        -0.20269
C         30.40596        24.53593        -0.12976
C         29.15567        25.24035        -0.12720
C         30.36927        27.39313        -0.01327
C         29.14462        26.67320        -0.06619
C         30.35715        28.82205         0.06108
C         29.11327        29.53751         0.08901
C         30.31855        31.70040         0.05230
C         29.10896        30.98521         0.09491
C         30.34838        33.11448        -0.11953
C         29.11518        33.84959         0.00055
C         30.31408        35.99389        -0.29067
C         29.15085        35.26925         0.03665
C         30.37409        37.41136        -0.26913
C         29.18282        38.17823         0.02197
C         30.41889        40.33315        -0.29284
C         29.12504        39.54962        -0.24086
C         30.35834        41.68683        -0.97106
C         29.06674        42.32858        -1.25118
C         30.34085        44.58118        -1.71747
C         29.01072        43.84207        -1.48504
C         30.30770        46.07717        -1.36637
C         29.05862        46.73605        -0.93072
C         30.35767        48.81639        -0.37820
C         29.10348        48.12530        -0.60430
C         30.36217        50.19435         0.00674
C         29.11802        50.89043         0.06703
C         32.93402        20.30216        -0.07579
C         31.72619        20.97749        -0.11720
C         32.89277        23.11461         0.00452
C         31.67263        22.39175        -0.09198
C         32.88391        24.54804        -0.04085
C         31.63323        25.25692        -0.10528
C         32.83391        27.41853        -0.04010
C         31.62047        26.69391        -0.05287
C         32.82757        28.82986         0.06164
C         31.59256        29.51646         0.13794
C         32.86842        31.74472         0.10878
C         31.57321        30.97820         0.27270
C         32.81309        33.13954        -0.37772
C         31.55997        33.80150        -0.40435
C         32.75373        35.95308        -0.97542
C         31.43745        35.21585        -0.94231
C         32.79725        37.32543        -0.91574
C         31.58656        38.10678        -0.64018
C         32.83116        40.22058        -1.00466
C         31.62040        39.50794        -0.71690
C         32.81995        41.68412        -1.03100
C         31.55989        42.41420        -1.06222
C         32.78982        44.55648        -1.06492
C         31.56754        43.84495        -1.18791
C         32.84338        45.98475        -0.95786
C         31.60585        46.77834        -1.05474
C         32.82451        48.77450        -0.20192
C         31.59187        48.13184        -0.47202
C         32.83193        50.14853         0.21827
C         31.59273        50.85198         0.31599
C         32.79942        52.85476         1.01850
C         31.62271        52.22220         0.72346
C         35.48562        18.88881        -0.21709
C         35.42872        20.29567         0.04290
C         34.16102        20.99230         0.02798
C         35.35044        23.14381         0.29307
C         34.14114        22.41953         0.10195
C         35.32872        24.57507         0.27778
C         34.10547        25.24976         0.01056
C         35.35654        27.43625         0.10571
C         34.12496        26.70536        -0.34679
C         35.33400        28.85050         0.07251
C         34.08298        29.56271         0.01178
C         35.30893        31.68070        -0.24295
C         34.09599        30.95936        -0.08525
C         35.27140        33.07946        -0.57417
C         34.01984        33.76458        -0.74715
C         35.25906        35.88582        -1.43317
C         33.93698        35.12012        -1.43711
C         35.23843        37.36056        -1.33331
C         34.05807        38.05029        -1.12855
C         35.29259        40.19895        -1.28603
C         34.04204        39.50317        -1.16823
C         35.29005        41.69040        -1.51436
C         34.01085        42.39921        -1.13607
C         35.24752        44.56102        -1.02127
C         34.02842        43.82971        -1.04043
C         35.29012        45.95743        -0.83182
C         34.05113        46.67029        -0.72400
C         35.29367        48.74448        -0.15778
C         34.06267        48.07536        -0.38421
C         35.30656        50.10995         0.30325
C         34.06143        50.80442         0.50309
C         35.26756        52.84224         1.23592
C         34.05853        52.17843         0.93038
C         35.32656        54.19811         1.66089
C         37.91567        18.88853        -0.01429
C         36.67665        18.21896        -0.26515
C         37.88135        20.29318         0.30300
C         36.62444        20.99687         0.28386
C         37.75899        23.13375         0.81024
C         36.60289        22.43973         0.46725
C         37.62758        24.58037         1.26078
C         36.52034        25.31348         0.54189
C         37.77576        27.47325         0.59807
C         36.54527        26.73250         0.42175
C         37.78489        28.88770         0.40519
C         36.55120        29.58155         0.16123
C         37.75555        31.73701         0.01211
C         36.54402        30.99466        -0.04696
C         37.70577        33.12845        -0.24536
C         36.51395        33.76451        -0.65635
C         37.77526        35.97727        -0.86691
C         36.54823        35.17406        -1.10271
C         37.77244        37.35299        -1.12732
C         36.53937        38.06392        -1.65114
C         37.77091        40.23657        -1.19745
C         36.50776        39.53362        -1.31646
C         37.79058        41.66757        -1.12027
C         36.48978        42.37217        -0.86979
C         37.80282        44.58886        -1.22711
C         36.50326        43.83311        -1.26631
C         37.78183        46.00307        -0.83553
C         36.54269        46.66589        -0.68804
C         37.77003        48.72120        -0.08524
C         36.53672        48.04965        -0.31594
C         37.77141        50.10634         0.29686
C         36.53344        50.76071         0.54291
C         37.77410        52.90924         1.06008
C         36.55279        52.06099         1.29971
C         37.77526        54.23381         1.44565
C         36.52685        54.84858         1.83643
C         40.38756        16.11221        -0.41193
C         39.21861        16.75504        -0.21758
C         40.36572        18.92298         0.12173
C         39.14833        18.19895        -0.06100
C         40.32241        20.30989         0.51704
C         39.06912        20.97370         0.64292
C         40.26459        23.10465         1.36459
C         38.93893        22.33061         1.31910
C         40.24875        24.60886         1.31737
C         38.95293        25.35453         1.27856
C         40.21349        27.49527         0.89616
C         38.99794        26.79762         0.88483
C         40.23406        28.91181         0.69369
C         39.00504        29.61275         0.48373
C         40.19705        31.76208         0.39527
C         39.00629        31.05619         0.30913
C         40.20978        33.23298         0.32157
C         38.91401        33.93824        -0.00823
C         40.21348        36.00217        -0.52466
C         38.97164        35.32513        -0.49548
C         40.22442        37.38759        -0.81564
C         38.99093        38.07428        -1.03363
C         40.24027        40.20576        -0.87924
C         38.97098        39.50553        -1.09286
C         40.25975        41.69343        -0.93105
C         38.98225        42.40437        -1.10549
C         40.27117        44.51746        -0.88338
C         39.04306        43.82072        -1.06090
C         40.25676        45.93014        -0.62255
C         39.01529        46.64585        -0.55381
C         40.24542        48.70581         0.04316
C         39.01298        48.03128        -0.19913
C         40.23929        50.10879         0.34234
C         39.00899        50.79267         0.44404
C         40.27924        52.91009         0.97521
C         39.00548        52.29904         0.45255
C         40.26192        54.28306         1.35277
C         39.02818        54.99014         1.48771
C         40.25789        57.03866         1.97618
C         39.05816        56.36972         1.77357
C         42.88073        16.11157        -0.11772
C         41.67002        16.86980        -0.59097
C         42.81740        18.92605         0.29335
C         41.60975        18.25918        -0.00188
C         42.79065        20.33097         0.59003
C         41.55598        20.99076         0.71216
C         42.79953        23.19559         0.87463
C         41.55784        22.41480         1.09781
C         42.77752        24.59484         0.86706
C         41.45791        25.33179         0.72955
C         42.76450        27.49083         0.74300
C         41.51804        26.78694         1.24859
C         42.72341        28.94180         0.69431
C         41.47569        29.61859         0.71002
C         42.71483        31.81755         0.41722
C         41.46263        31.11453         0.88577
C         42.70599        33.18808         0.07601
C         41.47595        33.92801         0.01286
C         42.70934        35.96333        -0.58244
C         41.46464        35.28072        -0.33947
C         42.72030        37.35584        -0.84672
C         41.48757        38.08814        -0.90860
C         42.73699        40.21086        -1.09574
C         41.50765        39.47827        -1.03696
C         42.75907        41.63114        -1.14245
C         41.49715        42.39582        -1.42641
C         42.73394        44.50321        -0.79585
C         41.51731        43.83155        -0.96965
C         42.72569        45.90530        -0.48285
C         41.48682        46.60785        -0.39109
C         42.71566        48.68949         0.14888
C         41.48441        48.00707        -0.06869
C         42.71362        50.08754         0.47793
C         41.48956        50.79396         0.55475
C         42.73093        52.85271         1.19549
C         41.48762        52.19483         0.90447
C         42.73038        54.24123         1.54181
C         41.49594        54.95420         1.61185
C         42.72852        57.00034         2.18650
C         41.48916        56.34348         1.92962
C         44.00599        16.75964         0.25502
C         45.26280        18.90834         0.59231
C         44.05764        18.20803         0.35624
C         45.25567        20.34459         0.71201
C         44.03112        21.04884         0.73055
C         45.25404        23.20728         0.79758
C         44.02659        22.48450         0.81351
C         45.23413        24.63230         0.76362
C         43.98907        25.32605         0.77038
C         45.22819        27.47971         0.41745
C         43.94489        26.77609         0.63962
C         45.20338        28.98150         0.49182
C         43.92499        29.68650         0.65085
C         45.17519        31.81396         0.33483
C         43.94206        31.11702         0.50516
C         45.18094        33.16529        -0.04664
C         43.94111        33.86016        -0.20135
C         45.18310        35.92574        -0.75166
C         43.94217        35.24902        -0.50993
C         45.18968        37.33079        -0.96942
C         43.96026        38.05450        -0.98015
C         45.19657        40.19087        -1.16037
C         43.96162        39.47918        -1.07718
C         45.19574        41.62405        -1.12690
C         43.97867        42.34274        -1.07902
C         45.20039        44.47951        -0.74485
C         43.98897        43.78938        -0.90370
C         45.19937        45.90633        -0.46001
C         43.95663        46.59568        -0.28958
C         45.19237        48.66803         0.24756
C         43.95460        47.98757         0.03283
C         45.19107        50.05297         0.62470
C         43.96029        50.75620         0.73665
C         45.19163        52.80592         1.39915
C         43.95740        52.14034         1.10671
C         45.18979        54.18267         1.77545
C         43.95338        54.91588         1.82365
C         43.91385        56.30635         2.14284
C         47.69370        18.92080         0.84857
C         46.52306        18.23336         0.67651
C         47.72547        20.35057         0.91764
C         46.49494        21.06270         0.83235
C         47.73020        23.20262         0.89348
C         46.49555        22.49032         0.84060
C         47.72660        24.63360         0.80955
C         46.49103        25.34634         0.73117
C         47.72712        27.46337         0.68386
C         46.50614        26.75814         0.64934
C         47.72784        28.93867         0.86694
C         46.44676        29.69548         0.91470
C         47.71938        31.80731         0.26561
C         46.45620        31.22625         0.87488
C         47.68974        33.12519        -0.18340
C         46.43118        33.85015        -0.31225
C         47.66150        35.84205        -1.26086
C         46.41288        35.18732        -0.71104
C         47.67013        37.34920        -1.14901
C         46.44003        38.04965        -1.12712
C         47.65006        40.22732        -1.59814
C         46.41003        39.46660        -1.22964
C         47.63410        41.63364        -1.07433
C         46.44855        42.33182        -0.99308
C         47.67939        44.45601        -0.67669
C         46.45292        43.76725        -0.77552
C         47.68762        45.96096        -0.80232
C         46.41026        46.61029        -0.33051
C         47.67564        48.65797         0.30548
C         46.42380        47.97646         0.06534
C         47.66806        50.02096         0.73994
C         46.43353        50.71555         0.89110
C         47.64684        52.73686         1.65318
C         46.42719        52.08910         1.31244
C         47.61133        54.09823         2.05016
C         46.42751        54.80025         2.09722
C         50.20437        20.38287         1.21706
C         48.95696        21.06510         1.05600
C         50.19942        23.21282         1.13037
C         48.96050        22.48960         1.02581
C         50.18139        24.61741         1.00626
C         48.96421        25.34353         0.80690
C         50.19761        27.53572         0.74426
C         48.96344        26.77784         0.75269
C         50.19231        28.92601         0.65012
C         48.98128        29.69472         0.66325
C         50.21760        31.81075         0.26568
C         48.96005        31.07757         0.39991
C         50.18987        33.20888        -0.08402
C         48.93109        33.85958        -0.38536
C         50.16390        36.01427        -0.56349
C         48.92248        35.18929        -0.76824
C         50.16197        37.38037        -1.16676
C         48.91616        38.06876        -1.23473
C         50.14699        40.19067        -1.26961
C         48.91859        39.47882        -1.32467
C         50.14154        41.59995        -1.08035
C         48.89123        42.25300        -0.56452
C         50.13752        44.44464        -0.47144
C         48.90877        43.75922        -0.63846
C         50.11541        45.85444        -0.21314
C         48.93126        46.59447        -0.24010
C         50.16017        48.63708         0.43213
C         48.90684        47.95437         0.18244
C         50.15324        50.01044         0.90850
C         48.90773        50.68259         1.06603
C         50.11446        52.58536         2.00976
C         48.89447        52.01191         1.57877
C         51.39043        21.06301         1.29840
C         52.69781        23.16346         1.21566
C         51.44822        22.49051         1.24386
C         52.74121        24.62260         1.33389
C         51.41608        25.38146         1.19653
C         52.76297        27.47609         0.94411
C         51.48769        26.75280         0.56302
C         52.75880        28.93321         0.67694
C         51.46483        29.66034         0.46974
C         52.69307        31.87458         0.49773
C         51.42394        31.13540         0.47697
C         52.67427        33.27421        -0.01252
C         51.39728        33.91145        -0.36224
C         52.66410        35.92191        -1.13908
C         51.43235        35.25068        -0.77927
C         52.66831        37.34251        -1.51250
C         51.38814        38.05834        -1.38304
C         52.61949        40.21524        -1.61008
C         51.36872        39.46232        -1.41721
C         52.68402        41.52773        -0.89826
C         51.37180        42.26650        -0.68490
C         52.62676        44.38068        -0.40372
C         51.40129        43.73503        -0.50431
C         52.67373        45.78495         0.05422
C         51.36473        46.52211         0.17929
C         52.64547        48.76956         0.14533
C         51.36493        47.98270         0.26323
C         52.65516        49.93712         1.11427
C         51.36415        50.60558         1.34133
C         51.31033        51.89493         1.91467
C         55.11506        23.20603         0.78750
C         53.93995        22.50918         0.97916
C         55.17138        24.63896         0.78293
C         53.99318        25.34173         1.04559
C         55.26814        27.48282         1.07649
C         53.95196        26.78872         1.06674
C         55.31181        28.96683         0.93208
C         54.00660        29.70948         0.95191
C         55.27159        31.78925         0.17036
C         54.00906        31.16305         0.64570
C         55.20296        33.09891        -0.51733
C         53.89539        33.81088        -0.65847
C         55.10142        35.73282        -1.65392
C         53.86617        35.22032        -1.06175
C         55.04703        37.14618        -2.18351
C         53.83946        37.98865        -1.91925
C         55.14800        40.29094        -1.72537
C         53.89127        39.50072        -1.99219
C         55.14047        41.60205        -1.12965
C         53.92391        42.28598        -0.86568
C         55.09710        44.36077        -0.35763
C         53.89538        43.67940        -0.54276
C         55.17649        45.85431        -0.51972
C         53.92503        46.58154        -0.04949
C         55.20033        48.69233         0.21213
C         53.92039        47.92660         0.14044
C         55.13302        49.94248         1.03847
C         53.83961        50.41763         1.57686
C         57.62725        24.65786         0.08757
C         56.43915        25.35361         0.54942
C         57.75049        27.48329         0.67369
C         56.48034        26.72589         0.70228
C         57.77150        28.92707         0.39572
C         56.44337        29.58270         0.13640
C         57.70532        31.76974        -0.19925
C         56.45518        31.09635         0.11971
C         57.69655        33.17219        -0.51928
C         56.45858        33.84321        -0.74341
C         57.63590        35.86593        -1.44660
C         56.41660        35.13669        -1.27726
C         57.59270        37.21153        -2.01312
C         56.39323        37.69928        -2.43261
C         57.63757        40.29355        -1.63391
C         56.38440        39.86232        -2.16964
C         57.61984        41.56686        -0.97230
C         56.37416        42.23030        -0.81903
C         57.61490        44.26518         0.12239
C         56.32615        43.57014        -0.21415
C         57.60281        45.75318         0.17565
C         56.45909        46.48045        -0.02411
C         57.74756        48.56775         0.52409
C         56.52757        47.98796        -0.14929
C         58.81914        25.28253        -0.10653
C         60.14618        27.46947        -0.25209
C         59.03520        26.68102         0.28245
C         60.13872        28.83073        -0.20755
C         58.94284        29.59842         0.08320
C         60.12715        31.79145        -0.33267
C         58.92259        31.05556        -0.15740
C         60.13042        33.14740        -0.59508
C         58.91759        33.87905        -0.74470
C         60.08240        36.03172        -1.38613
C         58.87205        35.25567        -1.15461
C         60.08718        37.28486        -1.88639
C         58.85330        38.04696        -2.30507
C         59.97331        40.05571        -1.14526
C         58.81187        39.48016        -1.67710
C         60.01204        41.37462        -0.66472
C         58.86066        42.17077        -0.56695
C         60.06342        44.28795         0.02940
C         58.89712        43.56488        -0.14501
C         60.04548        45.66536         0.39666
C         58.87407        46.40115         0.44882
C         58.85724        47.82356         0.72880
O         28.86226        42.90860        -2.58373
O         27.37070        38.08015         1.72331
O         36.11949        35.37024        -2.53056
O         47.01688        29.22155         2.17600
O         52.26972        29.16892        -0.71629
O         24.14444        30.44371        -1.41111
O         25.40505        36.81601        -1.08025
O         56.40037        38.88722        -3.17423
O         52.03373        45.92289         1.37912
O         39.68664        25.15108         2.54806
O         54.38175        32.94040        -1.75915
O         54.02285        30.65840         2.04956
O         53.06436        40.17018        -3.01119
O         52.72967        33.03946         1.43174
O         26.83832        41.70612        -1.97306
O         58.70932        27.01130         1.66079
O         55.59015        28.38216         2.22150
O         32.29987        31.51653         1.44515
O         25.91744        31.22440         1.62227
O         55.16285        50.02050        -0.43396
O         54.86879        36.00118        -3.09435
O         45.30110        28.30139        -0.81784
O         52.02592        25.20981         2.49383
O         31.00435        46.83715        -2.42105
O         39.39905        33.85552         1.38707
O         37.13630        44.22476        -2.51115
O         56.84777        43.62144         1.20283
O         52.03786        41.49623         0.42176
O         41.07003        22.63459         2.50368
O         40.32166        41.05305         0.37575
O         55.17399        46.03654        -1.98484
H         55.66102        46.88153        -2.17119
O         33.64958        34.80360        -2.84351
H         34.52761        34.67289        -3.27716
O         46.48636        31.69439         2.25779
H         46.88396        30.96444         2.79224
O         51.59004        26.49915        -0.87629
H         51.75805        27.37887        -1.29699
O         56.69559        48.25403        -1.59066
H         56.45546        49.20052        -1.72390
O         30.67324        40.67161         1.13298
H         30.73498        39.82638         1.62850
O         56.10957        29.22292        -1.25538
H         56.68589        29.74555        -1.85342
O         48.91057        41.92831         0.88615
H         49.81943        42.09990         1.21990
O         41.68655        26.80900         2.68339
H         40.91450        26.33278         3.07890
O         47.74342        46.23664        -2.25492
H         46.97335        45.78928        -2.66665
O         41.84340        17.04439        -2.04810
H         42.68245        17.53530        -2.17963
O         52.60190        49.36717        -1.19274
H         53.43237        49.89566        -1.28004
O         50.15644        36.31786         0.90321
H         50.28232        35.46575         1.37650
O         58.97498        38.24103        -3.73373
H         58.12127        38.61565        -4.05061
O         38.95705        52.67724        -0.98359
H         39.79208        52.36557        -1.39393
O         35.43486        41.86945        -2.94887
H         34.73445        41.35416        -3.40023
O         36.66837        51.63927         2.72920
H         36.60517        52.45690         3.26930
O         31.00633        35.06988        -2.34078
H         31.81368        34.84472        -2.86545
O         41.45353        31.32735         2.35422
H         40.63561        30.91628         2.70758
O         36.67089        38.01204        -3.11915
H         36.61705        37.05501        -3.35883
O         41.35121        42.41700        -2.88723
H         42.10019        42.92876        -3.25894
O         36.26730        42.33157         0.57115
H         37.13577        42.33087         1.02596
O         38.59573        22.05178         2.72264
H         39.45976        21.93962         3.19067
O         28.15444        35.69922         2.10851
H         27.72229        36.44709         2.58508
O         47.61972        35.57213        -2.72273
H         46.73357        35.84619        -3.04287
O         41.18513        25.38476        -0.70229
H         41.93704        25.84132        -1.13725
O         37.16478        24.48129         2.64552
H         37.68096        23.74714         3.06269
O         30.56913        44.49384        -3.15045
H         31.06003        45.31103        -3.40962
O         34.21616        26.72217        -1.83947
H         33.43863        26.22767        -2.17803
O         47.59694        40.36360        -3.08609
H         47.67393        39.46001        -3.46157
H         22.01742        26.77741        -0.07301
H         21.93082        29.23566        -0.19338
H         21.87507        31.24159         0.23835
H         21.96212        33.63614         0.66718
H         21.98663        35.57094         0.61723
H         22.01642        37.99672         0.73559
H         22.18781        39.93928         1.27366
H         22.18822        42.37214         1.04480
H         22.07146        44.15272         0.38501
H         22.04815        46.60279         0.12911
H         25.40167        23.45692        -0.19662
H         23.27759        24.69438        -0.15699
H         25.37544        49.94946        -0.40865
H         23.25633        48.72718        -0.19527
H         27.04820        22.52219        -0.25092
H         27.00032        50.81704        -0.07102
H         29.15620        21.32569        -0.22817
H         29.09377        51.96045         0.30829
H         32.91593        19.20519        -0.10784
H         30.80239        20.38858        -0.18470
H         32.76751        53.90650         1.33136
H         30.68845        52.79113         0.81140
H         34.56192        18.33380        -0.42500
H         34.39898        54.76034         1.83718
H         36.67439        17.15003        -0.51465
H         36.51862        55.88948         2.18511
H         40.41169        15.01704        -0.51493
H         38.29306        16.16777        -0.13771
H         40.25633        58.11546         2.19809
H         38.12104        56.93853         1.84111
H         42.86899        15.01325        -0.18364
H         42.72430        58.07319         2.42727
H         44.89748        16.17443         0.52109
H         44.84648        56.84667         2.35169
H         48.63002        18.35088         0.90668
H         46.56053        17.13882         0.59990
H         48.54059        54.62135         2.31010
H         46.45633        55.85542         2.39778
H         50.22450        19.28751         1.28318
H         50.13001        53.59682         2.43578
H         52.31871        20.49109         1.43064
H         52.23145        52.38223         2.26230
H         56.03558        22.63274         0.61487
H         53.97222        21.41226         0.92326
H         56.04988        50.33399         1.52280
H         53.87539        51.28924         2.24761
H         57.53665        23.60208        -0.20367
H         57.78648        49.65456         0.68941
H         59.64691        24.74645        -0.59493
H         61.00395        26.93862        -0.69167
H         61.02288        29.36562        -0.58101
H         61.09403        31.27781        -0.24578
H         61.09642        33.65431        -0.72206
H         61.04994        35.55837        -1.16431
H         61.05825        37.75160        -2.10816
H         60.90849        39.48046        -1.11821
H         60.97997        41.77368        -0.32976
H         61.04080        43.80564        -0.11337
H         61.00498        46.17157         0.57761
H         59.77886        48.29253         1.10617
