         236
 CSIRO Nanostructure Databank - Neutral Graphene Oxide Data Set
C        -10.88829         0.78380         1.03860
C         -9.70820         1.56563         0.66234
C         -8.47960         0.85603         0.57316
C         -7.20395         1.58544         0.52392
C         -5.97964         0.83941         0.11938
C         -4.89999         1.51502        -0.51656
C         -3.69859         0.77247        -0.84853
C         -2.50002         1.46533        -1.02573
C         -1.21863         0.81601        -1.48496
C          0.03262         1.44885        -0.90442
C          1.28982         0.74167        -1.19448
C          2.54796         1.43276        -0.85965
C          3.54530         0.66053        -0.03444
C          4.76457         1.38941         0.40622
C          6.01453         0.60133         0.54506
C          7.22341         1.34399         0.98388
C          8.50235         0.61104         1.17643
C          9.79846         1.33244         0.86487
C         10.97788         0.53401         1.39544
C         -9.75253         2.94760         0.46921
C         -8.56642         3.70592        -0.07788
C         -7.23433         3.07606         0.39867
C         -5.97461         3.67552        -0.10059
C         -4.94057         2.93933        -0.67170
C         -3.77663         3.69546        -1.21006
C         -2.48992         2.92681        -1.24006
C         -1.24953         3.66668        -0.84490
C          0.05808         2.92807        -0.75150
C          1.31411         3.71448        -1.14177
C          2.59506         2.93539        -0.80644
C          3.71811         3.61024        -0.09155
C          4.81766         2.87439         0.28871
C          6.00998         3.53281         0.85454
C          7.28028         2.81040         0.88539
C          8.50845         3.50395         1.09726
C          9.71792         2.79651         1.21224
C         -8.71589         5.23767        -0.06488
C         -7.74964         6.11325         0.32241
C         -5.80043         5.06430         0.14941
C         -4.86697         5.87498        -0.42705
C         -3.83356         5.24448        -1.32469
C         -2.42088         6.00492        -1.17162
C         -1.22452         5.15211        -0.76095
C          0.09086         5.85966        -0.62823
C          1.28373         5.14391        -0.62488
C          2.51639         5.80392        -0.31198
C          3.70995         5.06592        -0.02994
C          4.87197         5.76562         0.34525
C          6.04132         5.04719         0.87370
C          7.36046         5.71564         0.91778
C          8.50028         4.96270         1.10446
C         -7.52410         7.53825         0.07181
C         -6.26145         8.08832        -0.07005
C         -4.99887         7.35191        -0.39689
C         -3.69495         8.08938        -0.36588
C         -2.46972         7.20813        -0.16236
C         -1.16435         7.97099        -0.18090
C          0.06580         7.27144        -0.33273
C          1.30186         7.96087        -0.20835
C          2.53006         7.22817        -0.20128
C          3.76873         7.91109        -0.01953
C          4.93039         7.18572         0.27240
C          6.18447         7.86463         0.58833
C          7.34231         7.15645         0.84083
C         -6.11021         9.53087         0.02713
C         -4.91129        10.17846         0.14986
C         -3.63802         9.49833         0.07376
C         -2.41643        10.07860         0.30833
C         -1.16223         9.36032         0.13791
C          0.05644        10.04202         0.26188
C          1.31250         9.38474         0.07350
C          2.52419        10.06537         0.18189
C          3.81227         9.40532        -0.22459
C          5.04858        10.03416         0.35973
C          6.15048         9.31823         0.66536
C        -10.85308        -0.55623         1.27478
C         -9.62243        -1.33526         1.19066
C         -8.39154        -0.51659         1.04817
C         -7.03724        -1.20012         1.04857
C         -5.93353        -0.55096         0.31117
C         -4.83897        -1.32616        -0.21282
C         -3.75042        -0.67389        -0.81959
C         -2.55868        -1.43613        -1.25699
C         -1.25973        -0.71118        -1.42823
C         -0.03559        -1.46064        -1.01075
C          1.25919        -0.69612        -0.93382
C          2.57488        -1.40415        -1.11439
C          3.56754        -0.87305        -0.07340
C          4.94364        -1.47829        -0.33201
C          6.08913        -0.71152         0.11807
C          7.40833        -1.39765         0.06356
C          8.49422        -0.87529         0.94827
C          9.77144        -1.62446         1.07193
C         10.97824        -0.81314         1.40995
C         -9.56883        -2.69926         1.19826
C         -8.29458        -3.43835         0.81751
C         -7.03468        -2.70127         1.31309
C         -5.85189        -3.39769         0.70214
C         -4.83551        -2.75883        -0.00380
C         -3.74400        -3.59963        -0.54236
C         -2.50764        -2.93032        -1.10324
C         -1.20454        -3.65186        -0.99479
C         -0.02367        -2.93881        -1.01927
C          1.26520        -3.60837        -0.57367
C          2.53486        -2.90084        -0.98376
C          3.74891        -3.52818        -0.96012
C          5.00196        -2.78231        -0.79824
C          6.32086        -3.53305        -1.02900
C          7.53857        -2.78563        -0.46573
C          8.76070        -3.56985        -0.10604
C          9.83480        -2.99110         0.48248
C         -8.19512        -4.91146         1.19396
C         -6.97543        -5.58135         1.24910
C         -5.77508        -4.77609         1.02331
C         -4.46732        -5.33699         0.96172
C         -3.53017        -4.92874         0.04235
C         -2.48934        -5.83611        -0.60681
C         -1.18020        -5.09118        -0.76988
C          0.02266        -5.79231        -0.77918
C          1.28975        -5.08775        -0.85995
C          2.48088        -5.74979        -0.95959
C          3.80305        -5.02832        -1.21545
C          4.95422        -5.63002        -0.40450
C          6.26540        -4.96090        -0.50660
C          7.41725        -5.67053        -0.25972
C          8.75574        -5.01732        -0.55711
C         -6.96970        -7.05156         1.22213
C         -5.91091        -7.93287         0.98783
C         -4.53790        -7.51041         1.00342
C         -3.52656        -8.04985         0.24158
C         -2.34060        -7.27453        -0.10226
C         -1.20750        -7.95452        -0.47531
C          0.03197        -7.24515        -0.72272
C          1.22402        -7.95590        -0.77361
C          2.49227        -7.22995        -0.98140
C          3.76698        -7.93266        -0.56768
C          4.93097        -7.10205        -0.11951
C          6.20802        -7.79673         0.11865
C          7.38039        -7.07025         0.09530
C         -6.04493        -9.32230         0.56555
C         -4.97148       -10.03931         0.10828
C         -3.64735        -9.45707        -0.09962
C         -2.51327       -10.14490        -0.45669
C         -1.22365        -9.43276        -0.80503
C          0.06343       -10.08687        -0.37275
C          1.24397        -9.38239        -0.44676
C          2.50769       -10.00405        -0.07681
C          3.69977        -9.32428        -0.05764
C          4.95705        -9.91560         0.35289
C          6.13518        -9.21871         0.37544
O          1.25502        -3.51851         0.89119
H          1.58575        -2.61829         1.14130
O          7.86674        -1.62236        -1.32227
O          0.48202        -0.98744         0.29767
O         -6.68380         5.59530         1.08865
O         -3.19996         3.25363        -2.50705
O         -4.25892         5.48786        -2.71799
H         -4.32000         4.60806        -3.16368
O         -7.47980        -0.50399         2.25012
O         -8.24338        -3.38814        -0.64498
H         -8.96302        -3.95375        -0.99537
O          1.23528         3.84856        -2.58487
H          1.85322         3.17158        -2.95989
O         -1.99331         7.88498        -2.74433
H         -2.93377         8.19726        -2.57684
O         -4.37160         7.92374        -1.66286
O         -8.51668         3.39181        -1.52133
H         -9.39565         3.59747        -1.90458
O          3.64173         1.08855         1.35868
O         -4.20585        -6.41114         1.79828
O          8.75428        -1.62180         2.16981
O         -7.12281         2.50657         1.71998
O         -1.20266        -9.45055        -2.28622
H         -1.84510        -8.77389        -2.59281
O         -1.97646        -1.17489        -2.60669
O          3.92926         9.61045        -1.69148
H          3.11275         9.24567        -2.09513
O         -2.07970         6.47645        -2.58316
H         -2.95869         6.18206        -3.08427
O          0.05665         2.08201         0.43626
O          4.57824        -6.10938         0.92068
O         -3.50692        -3.51792        -2.00476
O          4.09836        -5.15213        -2.57608
O          7.77020         0.97753         2.35982
O          3.41238        -7.82090        -1.97136
O          5.73875         4.29513         2.09931
O          3.13044        -1.36667         1.20881
H          3.29949        -0.64911         1.86742
O         -1.53062         4.36590         0.43701
O          8.96581        -5.06382        -1.97896
H          8.16697        -4.66655        -2.40887
O          3.14076         2.21730        -1.97918
O          6.55185        -3.61393        -2.46239
H          6.85115        -2.72081        -2.74814
O          3.04117        -1.05547        -2.43764
H          3.56415        -1.80531        -2.79389
O         -6.93921        -2.91703         2.73529
H         -7.19966        -2.07130         3.17312
O          9.89936         1.27322        -0.60308
H         10.74555         1.69263        -0.86581
O         -2.67839         6.64040         1.14457
H         -1.88611         6.12727         1.41633
O         -3.02587        -6.10282        -1.95126
H         -3.18474        -5.22029        -2.37666
O         -1.08165         1.16877        -2.89698
H         -1.67018         0.55412        -3.39586
H         11.88321        -1.35414         1.73026
H         11.88953         1.08131         1.68477
H         10.65423         3.35866         1.35577
H          9.47097         5.47472         1.19282
H          8.27935         7.70307         1.02889
H          7.05663         9.82885         1.02678
H          5.06458        11.13121         0.44799
H          2.52293        11.14658         0.38530
H          0.04980        11.11582         0.50064
H         -2.36721        11.13575         0.61064
H         -4.90501        11.26382         0.32964
H         -7.03560        10.11978         0.12159
H         -8.37980         8.23223         0.12717
H         -9.55711         5.61761        -0.66764
H        -10.69860         3.48476         0.63626
H        -11.84792         1.31736         1.11425
H        -11.78474        -1.09082         1.51455
H        -10.50501        -3.27506         1.28899
H         -9.12937        -5.49651         1.22937
H         -7.97943        -7.49645         1.18424
H         -7.03400        -9.80187         0.62339
H         -5.11481       -11.09412        -0.17180
H         -2.56566       -11.22631        -0.65914
H          0.06934       -11.14758        -0.07855
H          2.48145       -11.05878         0.23918
H          4.95671       -10.98307         0.62105
H          7.06600        -9.74160         0.64241
H          8.33867        -7.58198         0.27460
H          9.59177        -5.57893        -0.07164
H         10.74335        -3.58760         0.66449
