         349
 CSIRO Nanostructure Databank - Neutral Graphene Oxide Data Set
C          0.96833         3.94461        -0.73174
C         -0.21720         4.67443        -0.47631
C          1.15091         6.66438         0.18626
C         -0.15668         5.95010         0.00826
C          1.17114         7.64041         1.39009
C         -0.04949         8.51947         1.47511
C          1.24379        10.66166         1.29923
C         -0.01935         9.85508         1.42523
C          1.18951        11.73853         0.16147
C         -0.04055        12.60601         0.24597
C          1.21769        14.73184         0.25685
C         -0.01384        13.95233         0.21473
C          1.20207        16.16306         0.15331
C          0.03602        16.88870        -0.21037
C          1.30322        18.97801        -0.38732
C          0.10117        18.23626        -0.50730
C          1.39699        20.33906        -1.08972
C          0.12644        21.14673        -1.13971
C          1.37404        23.28150        -1.12377
C          0.17670        22.47933        -1.33642
C          1.37016        24.64574        -1.67612
C          0.85906        24.89841        -2.98528
C          1.95510        27.08503        -3.05730
C          1.12578        26.08693        -3.64329
C          2.42228        28.24359        -3.75137
C          3.39166         3.66770        -0.62181
C          2.23277         4.45438        -0.36807
C          3.60112         6.17320         0.77788
C          2.36612         5.74712         0.24991
C          3.68609         7.58180         1.36347
C          2.45013         8.41628         1.23892
C          3.73941        10.47589         1.02357
C          2.47703         9.78013         1.15249
C          3.75865        11.88664         0.59358
C          2.48238        12.57859         0.20260
C          3.64867        14.78042         0.62832
C          2.44133        14.05544         0.37264
C          3.60363        16.19130         0.66240
C          2.41643        16.89616         0.33642
C          3.69102        19.04528         0.31641
C          2.44658        18.32128         0.10446
C          3.74354        20.50034         0.00931
C          2.58743        21.19912        -0.62769
C          3.64875        23.42377        -0.00572
C          2.48231        22.69393        -0.51290
C          3.63846        24.81155         0.22913
C          2.02960        25.69218        -1.04138
C          3.29903        27.81850        -1.14173
C          2.38779        26.89407        -1.71108
C          3.91362        28.83344        -1.89042
C          3.37629        29.07304        -3.19902
C          5.87534         3.28152        -0.44640
C          4.62938         4.11017        -0.20708
C          6.07824         5.67459         0.90805
C          4.73416         5.30369         0.56731
C          6.28958         7.79063         1.62425
C          4.95101         8.40761         1.66941
C          6.18300        10.57762         1.26428
C          4.93022         9.85234         1.33612
C          6.17118        11.96298         1.18494
C          4.94878        12.67942         0.94969
C          6.15312        14.80311         0.92029
C          4.90270        14.07158         0.88214
C          6.09230        16.25705         0.65533
C          4.82714        16.94859         1.11321
C          6.08324        19.13490         0.94375
C          4.83493        18.41557         0.75747
C          6.03092        20.59215         1.15255
C          4.77064        21.31765         0.71960
C          6.03574        23.45588         0.74271
C          4.84695        22.75400         0.42426
C          6.07323        24.88834         0.60788
C          4.83836        25.56659         0.41179
C          6.03946        27.68989         0.03487
C          4.85065        26.98082         0.23191
C          6.08115        29.03093        -0.56883
C          5.08212        29.53257        -1.42207
C          8.31012         3.54970        -1.00419
C          7.14142         4.11159        -0.55340
C          8.31093         6.37539        -0.16601
C          7.19634         5.36454         0.14517
C          8.68166         7.51893         0.87656
C          7.44792         8.38101         1.23717
C          8.73653        10.57082         1.27103
C          7.46192         9.84884         1.64078
C          8.69039        12.02892         1.13169
C          7.42366        12.73985         1.52876
C          8.62335        14.90685         0.97416
C          7.37223        14.17574         1.06900
C          8.62538        16.32504         0.85861
C          7.36601        17.04206         0.65365
C          8.54913        19.23584         0.98848
C          7.31270        18.49683         0.91217
C          8.51272        20.62895         1.16437
C          7.28271        21.36181         1.19517
C          8.47126        23.55345         1.38330
C          7.24841        22.75921         1.08020
C          8.53275        25.00478         1.08239
C          7.27573        25.65791         0.72898
C          8.46070        27.84438         0.59399
C          7.24510        27.03332         0.42599
C          8.50021        29.19820        -0.00227
C          7.31079        29.75014        -0.50970
C         10.76416         3.60436        -1.29497
C          9.54533         4.30140        -0.98818
C         10.67134         6.51410        -1.16199
C          9.55174         5.65355        -0.64255
C         10.87411         7.82881        -0.42063
C          9.83011         8.38409         0.28895
C         10.94448        10.68691         0.03836
C          9.91791         9.81610         0.69093
C         11.06245        12.09351         0.45911
C          9.86114        12.75896         0.89814
C         11.14381        14.91269         1.09793
C          9.83903        14.19292         0.97151
C         11.05035        16.36445         0.72586
C          9.84676        17.06639         0.78594
C         11.00476        19.24616         0.73171
C          9.81506        18.53486         0.79047
C         11.03073        20.71694         0.70937
C          9.74309        21.42554         0.99333
C         11.15974        23.51819         1.64086
C          9.78611        22.82888         1.50215
C         11.05401        25.08071         1.58588
C          9.74565        25.65664         1.04068
C         11.01918        27.82087         0.52823
C          9.76299        27.13191         0.87674
C         10.98556        29.21662         0.15831
C          9.73035        29.86386        -0.07684
C         13.22255         3.55932        -1.42256
C         11.99062         4.25664        -1.38432
C         13.27495         6.45847        -1.39995
C         11.96790         5.74500        -1.45563
C         13.32502         7.86817        -0.94787
C         12.14917         8.52831        -0.62877
C         13.43081        10.75714        -0.51850
C         12.16691        10.00319        -0.51971
C         13.45003        12.11154        -0.27197
C         12.25220        12.81542         0.17810
C         13.54765        14.92190         0.35393
C         12.30502        14.20731         0.43632
C         13.57903        16.36034         0.44576
C         12.28669        17.04245         0.37699
C         13.57296        19.22340         0.66722
C         12.26879        18.55978         0.43008
C         13.55265        20.74503         0.70393
C         12.28897        21.48107         0.73362
C         13.49376        23.61051         0.66514
C         12.28917        22.88251         0.82320
C         13.53265        25.03163         0.82892
C         12.29156        25.74875         0.99717
C         13.49848        27.77879         0.26336
C         12.23021        27.11533         0.64186
C         13.47652        29.30588        -0.02460
C         12.17581        29.94675         0.00079
C         15.70013         3.49550        -1.41340
C         14.48779         4.19456        -1.43529
C         15.83281         6.36730        -1.15752
C         14.54608         5.67384        -1.48814
C         15.79839         7.77578        -0.71242
C         14.62547         8.50422        -0.77347
C         15.97707        10.67894        -0.35687
C         14.68410         9.98991        -0.71234
C         15.93833        12.08236         0.04380
C         14.75851        12.87491        -0.47317
C         16.00511        14.97237         0.49405
C         14.74418        14.24658         0.12777
C         16.04630        16.37630        -0.10491
C         14.76187        17.11107         0.21522
C         16.08934        19.21558         0.00898
C         14.78034        18.50136         0.25546
C         16.04500        20.72193         0.19667
C         14.75106        21.42682         0.17481
C         16.01448        23.62912         0.22924
C         14.71522        22.94200         0.17511
C         16.01352        25.04616         0.44578
C         14.76528        25.71569         0.66498
C         16.00478        27.90756         0.43886
C         14.75372        27.20990         0.88255
C         15.97547        29.30293         0.19861
C         14.73713        30.00201         0.14061
C         18.18569         3.41749        -1.31625
C         16.96887         4.14619        -1.26169
C         18.26822         6.16875        -0.74752
C         17.04159         5.54362        -0.97481
C         18.37834         7.56770        -0.16902
C         17.05236         8.35259        -0.14621
C         18.49040        10.50481         0.13701
C         17.13602         9.83428         0.07360
C         18.52302        12.00501         0.27230
C         17.19804        12.76818         0.34170
C         18.47401        14.89415         0.12561
C         17.27089        14.22567         0.19585
C         18.48741        16.36304         0.29758
C         17.32423        17.07525         0.34087
C         18.54088        19.30672         0.67006
C         17.22563        18.52492         0.80399
C         18.50754        20.74694         0.27466
C         17.19916        21.44759         0.11965
C         18.47072        23.60235         0.08736
C         17.21067        22.90506         0.12192
C         18.47014        25.03275         0.21804
C         17.25163        25.73495         0.43320
C         18.50506        27.91486         0.23825
C         17.29152        27.20739         0.77201
C         18.44820        29.32551         0.02349
C         17.20811        30.01274         0.06989
C         19.40903         4.06037        -1.18071
C         20.73398         6.17220        -0.84273
C         19.47173         5.44305        -0.89910
C         20.77779         7.52221        -0.85964
C         19.50794         8.35267        -0.92512
C         20.78719        10.63586        -0.90214
C         19.69140         9.77748        -0.38778
C         20.78925        11.98856        -0.76910
C         19.70686        12.75762        -0.18346
C         20.90938        14.94775        -0.33680
C         19.70590        14.16099        -0.12467
C         20.97429        16.27438        -0.06916
C         19.81206        17.03367         0.44583
C         21.02236        19.35663         0.18994
C         19.83839        18.54431         0.56481
C         20.96686        20.64714        -0.18295
C         19.67940        21.40742        -0.41985
C         20.89433        23.61822        -0.07431
C         19.70317        22.89861        -0.08439
C         20.90077        25.01837         0.04013
C         19.71681        25.74630         0.14145
C         20.87693        27.93694        -0.28095
C         19.71179        27.21341         0.06182
C         20.84052        29.32712        -0.43376
C         19.64624        30.02094        -0.29799
O          9.00550        23.10213         2.69283
O         12.55738         6.27717        -2.69200
O          2.41922        25.50106         0.29980
O         10.19308        21.31072        -0.40084
O         18.70635        20.37252         1.67377
O         15.57736        10.48531        -1.80006
O          3.63231        27.67784         0.21593
O          4.14657         7.82431         2.75325
O          3.78494        20.82977        -1.43052
O          6.64510        16.67268        -0.61624
O         13.59386        28.21830        -1.07207
O         20.05367        17.69000         1.74311
O         11.10558        10.54394        -1.40593
O          6.26710         6.46276         2.02362
O          4.98862        20.99240         2.12143
O         15.37660         6.21054        -2.56886
O         19.45237         9.88955         1.05388
O         14.48935        22.15124        -1.06719
O         16.81184         8.95800         1.18702
O         17.95397        12.37057         1.57205
O         13.73094        19.95016         1.92959
O          9.86313        10.08940         2.12221
O          3.40393        12.12651        -0.84526
O         12.20691        17.88171        -0.85545
O          9.00635        27.80682         1.96504
O          1.23419         6.84755         2.59941
H          2.02100         7.11770         3.11912
O         11.02690        25.52374         2.98094
H         10.73956        26.46272         2.99588
O          6.03023         2.34791         0.64397
H          6.15464         2.86151         1.46895
O         14.91380        13.09100        -1.91700
H         15.06979        12.19774        -2.31517
O         10.16618         6.96698        -2.46964
H         10.96689         7.08389        -3.04322
O         19.11857         8.51013        -2.30860
H         19.05154         7.61983        -2.71456
O         11.60073        23.14856         2.96708
H         11.09929        23.70812         3.60379
O          4.87026        16.86453         2.57625
H          4.12247        17.38951         2.93204
O         19.38672        21.31591        -1.84669
H         20.06424        21.83306        -2.33017
O         15.96911        15.13924         1.94394
H         16.25348        14.29616         2.35790
O         16.83017        18.51072         2.18202
H         17.62788        18.35440         2.72997
O          7.45235        12.77012         3.01586
H          6.72372        13.35803         3.31176
O         17.40277        27.26478         2.27284
H         17.71557        28.16771         2.49925
O          7.74058         7.10132        -1.30293
H          8.43435         7.16238        -2.00737
O         11.46847        14.90010         2.55877
H         11.34443        13.97963         2.87692
O         16.44110        19.01465        -1.40203
H         15.86874        19.59847        -1.94568
O          7.42838         9.83367         3.10671
H          7.57435        10.76437         3.40426
O         18.79962         7.33470         1.18334
H         18.74193         8.19719         1.66236
O          1.63088        19.97284        -2.48103
H          2.61098        19.95662        -2.60180
O          1.11234        11.04109        -1.09122
H          2.00434        11.10256        -1.51029
O         14.64724        27.43920         2.32606
H         15.53293        27.20674         2.70443
O         16.12630        16.24036        -1.53899
H         16.22580        17.15180        -1.90528
O          1.41262        11.42418         2.52513
H          1.39646        10.79746         3.27857
O          1.32435         7.51647        -0.98956
H          1.20475         6.95886        -1.78684
O          9.20594         6.89472         2.05813
H          9.27303         7.58244         2.75502
H          0.90752         2.94245        -1.17815
H         -1.19067         4.20584        -0.68060
H         -1.08178         6.52617         0.14949
H         -1.01000         8.01061         1.64985
H         -0.95629        10.41906         1.55472
H         -1.01206        12.09091         0.21672
H         -0.96963        14.49566         0.20986
H         -0.92045        16.36578        -0.34247
H         -0.80734        18.73107        -0.87546
H         -0.83359        20.62452        -1.25230
H         -0.75137        23.02951        -1.55464
H          0.29253        24.10777        -3.49735
H          0.75209        26.23736        -4.66601
H          2.05807        28.43472        -4.77079
H          3.28904         2.71137        -1.15481
H          3.77669        29.91148        -3.78734
H          5.74464         2.66638        -1.37133
H          5.33333        30.46160        -1.96061
H          8.32317         2.51970        -1.38800
H          7.35423        30.74487        -0.97966
H         10.72960         2.50679        -1.36255
H          9.74795        30.89800        -0.45317
H         13.19169         2.45954        -1.38775
H         12.12885        31.04433        -0.05026
H         15.68406         2.39693        -1.47806
H         14.73610        31.09976         0.21004
H         18.15351         2.33652        -1.51496
H         17.18744        31.09716        -0.10937
H         20.34305         3.48951        -1.28559
H         21.66811         5.58988        -0.84034
H         21.74889         8.03968        -0.87044
H         21.61969        10.14952        -1.43128
H         21.64584        12.54142        -1.18147
H         21.82576        14.43334        -0.65985
H         21.93521        16.79939        -0.16894
H         22.00643        18.87483         0.29558
H         21.91320        21.15253        -0.43096
H         21.85809        23.10275        -0.18505
H         21.87060        25.53288         0.01638
H         21.83065        27.41503        -0.43458
H         21.76301        29.86757        -0.68822
H         19.61129        31.10828        -0.45530
