         280
 CSIRO Nanostructure Databank - Neutral Graphene Oxide Data Set
C         30.62431        31.30112         0.03768
C         30.90678        32.33584        -0.58808
C         31.41729        35.24977        -2.04227
C         31.51448        36.36075        -2.55910
C         31.23364        39.72081        -2.98006
C         30.99586        40.92364        -2.82666
C         32.62425        28.85490         1.98559
C         31.48461        29.31825         1.62303
C         32.65318        31.48981         1.38830
C         31.70371        30.43746         0.61421
C         32.57398        33.01080         1.03385
C         32.00484        33.28067        -0.36537
C         33.06210        35.67294        -0.32626
C         32.23110        34.59042        -1.01594
C         33.28353        36.98247        -1.05628
C         32.48861        37.43162        -2.31295
C         33.20320        39.79202        -1.55366
C         32.36484        38.91606        -2.49371
C         32.90701        41.24617        -1.31617
C         31.29564        41.96160        -1.81087
C         32.70402        44.03270        -1.78305
C         31.75308        43.31638        -2.11526
C         35.19758        27.30796         1.31192
C         35.14023        28.62381         1.96669
C         33.89732        29.36404         2.18499
C         35.14799        31.62323         2.13753
C         33.84679        30.86494         2.08945
C         35.11770        33.12682         1.92532
C         33.89258        33.78675         1.33622
C         35.41113        35.81099         0.80949
C         33.95589        35.28407         0.89868
C         35.57847        37.15355         0.16349
C         34.54607        37.74834        -0.76937
C         35.49255        40.11068        -0.47464
C         34.53253        39.22331        -1.11355
C         35.34531        41.56684        -0.55319
C         34.05430        42.19923        -0.98944
C         35.15956        44.49143        -0.93372
C         34.14886        43.60302        -1.69883
C         35.53642        45.87774        -1.44484
C         37.45602        27.27233         0.41982
C         36.18563        26.70745         0.88439
C         37.47096        28.79090         0.68158
C         36.42290        29.39308         1.60662
C         37.65595        31.70525         1.50894
C         36.43688        30.88872         1.87623
C         37.76116        33.08749         2.13963
C         36.45438        33.86902         2.09095
C         37.78959        36.04243         1.80009
C         36.37372        35.41188         1.95151
C         37.83311        37.49647         1.31221
C         36.57292        38.11390         0.75656
C         37.88026        40.33280         0.37082
C         36.57645        39.56372         0.35810
C         37.91154        41.71171        -0.21907
C         36.63220        42.32459        -0.73692
C         37.82913        44.57545        -0.56450
C         36.58304        43.80057        -0.97759
C         37.79156        46.09129        -0.49311
C         36.51964        46.53857        -1.08994
C         39.91676        24.57467        -0.30603
C         38.96663        25.09270         0.35713
C         40.07763        27.29073         0.26397
C         38.73434        26.55183         0.21403
C         40.11928        28.83451         0.48755
C         38.74904        29.55388         0.45795
C         40.21378        31.58364         1.03516
C         38.82432        31.02585         0.86243
C         40.37014        32.92808         1.70218
C         39.17460        33.74157         2.28588
C         40.40162        35.96818         1.57061
C         39.09332        35.26740         1.92643
C         40.35414        37.31886         0.86923
C         39.13005        38.17495         0.99065
C         40.40533        40.13971        -0.18290
C         39.12453        39.48672         0.23298
C         40.49293        41.62846        -0.44775
C         39.19504        42.35764        -0.71175
C         40.44006        44.65423        -0.56925
C         39.15897        43.87124        -0.76472
C         40.39904        46.13976        -0.30661
C         39.06551        46.87153        -0.32078
C         40.36135        48.89816        -0.63606
C         39.29729        48.26726        -0.72184
C         42.40179        24.62243        -1.14163
C         41.15373        25.07963        -0.68975
C         42.41740        27.34565        -0.96288
C         41.27707        26.56479        -0.28282
C         42.50757        28.82767        -0.57101
C         41.15689        29.56688        -0.43798
C         42.66382        31.58380         0.28002
C         41.24078        31.12462        -0.03082
C         42.86923        32.88535         1.00341
C         41.74784        33.64188         1.76972
C         42.91761        35.81175         0.92361
C         41.66864        35.16191         1.45839
C         42.93642        37.26552         0.62518
C         41.62164        37.97653         0.41576
C         42.71417        40.23120         0.83461
C         41.76227        39.43723        -0.05759
C         42.69729        41.73169         0.89452
C         41.71546        42.41593        -0.03296
C         42.77215        44.72569         0.53338
C         41.69153        43.92623        -0.14098
C         42.96885        46.13280        -0.01561
C         41.73558        46.84785        -0.55096
C         42.96736        48.95119        -0.19448
C         41.73339        48.40420        -0.74953
C         43.53647        25.15073        -1.07093
C         45.02350        27.31833        -1.03088
C         43.76418        26.57575        -0.79897
C         44.92746        28.81932        -1.27415
C         43.69159        29.49459        -0.72158
C         45.03467        31.72933        -0.81404
C         43.74114        30.98940        -0.61011
C         45.15738        33.14040        -0.26152
C         44.06732        33.71354         0.58854
C         45.47544        35.87742         0.96477
C         44.21762        35.09759         1.17573
C         45.52387        37.41730         1.12111
C         44.11762        38.05932         1.10094
C         45.24357        40.36502         0.90799
C         44.00859        39.54372         1.19816
C         45.25992        41.77912         1.43416
C         43.88699        42.49912         1.59332
C         45.21363        44.77707         1.27894
C         43.89849        44.02011         1.24452
C         45.06569        46.33011         1.57987
C         44.18867        46.92612         0.49105
C         43.90066        48.35455         0.34731
C         47.24185        27.44844        -2.03684
C         46.30952        26.83267        -1.52055
C         47.50880        28.88993        -2.02961
C         46.18390        29.58735        -1.64384
C         47.66083        31.62705        -0.88622
C         46.31333        30.96432        -1.04150
C         47.81552        33.07941        -0.39141
C         46.48158        33.90087        -0.49506
C         47.90142        35.98335         0.05499
C         46.67251        35.18495         0.36305
C         47.81101        37.48575        -0.04912
C         46.52424        38.18052         0.24447
C         47.82001        40.44036         0.38810
C         46.49604        39.69673         0.40944
C         47.82144        41.90873         0.80218
C         46.55462        42.52914         1.36940
C         47.80234        44.71798         1.85741
C         46.52604        44.03868         1.34762
C         47.53715        46.15993         1.85508
C         46.49954        46.76782         1.60171
C         50.18920        28.92403        -1.88694
C         48.84542        29.54019        -1.87763
C         50.28009        31.67864        -1.32404
C         48.96084        30.92678        -1.25171
C         50.20898        33.18085        -1.52024
C         48.94189        33.89141        -1.09070
C         50.27908        36.16333        -0.94942
C         48.99211        35.37338        -0.80818
C         50.40526        37.44199        -0.12163
C         49.12702        38.18265         0.18271
C         50.41087        40.34397         0.75390
C         49.12536        39.68925         0.29182
C         50.39627        41.77074         1.20502
C         49.12383        42.59962         1.12599
C         50.44398        44.55356         1.66501
C         49.09617        43.98344         1.78452
C         51.22218        29.62039        -2.05678
C         52.57597        31.88483        -2.01248
C         51.53987        30.97068        -1.83110
C         52.65666        33.11901        -1.69501
C         51.48025        34.00021        -1.84163
C         52.67644        36.27209        -1.19063
C         51.50019        35.47789        -1.57509
C         52.72802        37.46671        -0.86640
C         51.74363        38.22076        -0.06985
C         52.72934        40.70131         0.04265
C         51.72821        39.66303         0.32422
C         52.70283        41.91785         0.26959
C         52.01280        42.66928         1.34348
C         51.48350        44.03176         1.24874
O         37.94995        41.49931         1.23237
O         38.52498        38.33042         2.28871
O         40.55239        31.66012         2.42433
O         33.00057        33.42146        -1.40937
O         48.55320        34.86270        -2.08294
O         52.13099        38.62390         1.25189
O         42.01228        40.90935         1.90263
O         50.38233        40.71871         2.18156
O         32.31796        36.87192         0.02289
O         34.39774        42.18805         0.41015
O         40.51514        29.50459        -1.76158
O         36.12456        35.91725        -0.44514
O         46.87014        37.82279        -1.11571
O         32.52808        40.27462        -0.32621
O         48.51359        42.71201        -0.19001
O         45.53808        40.30669        -0.51928
O         37.92008        26.94571        -0.91012
O         50.58338        33.55601        -2.87875
O         37.02583        33.39565         3.34529
O         38.48161        35.94705         3.07117
O         41.31765        35.91042         2.68511
O         45.16576        29.30900        -2.63475
O         32.69529        31.39094         2.82584
O         35.18062        38.22584        -1.98858
O         37.76643        29.43409        -0.59436
O         37.91183        31.84810         0.06602
O         39.16270        43.05728        -1.96911
O         36.02617        39.10208         1.67025
O         44.06051        33.91259        -0.86142
O         41.48778        44.35053        -1.51745
O         49.82482        37.41059         1.20528
O         46.02168        44.55209         0.08621
O         36.76781        42.88436        -2.07248
O         49.83101        31.07270        -0.08249
O         44.19204        46.28112        -0.78886
O         41.07974        26.69340         1.15174
O         37.56003        45.26451         0.69310
O         43.87953        38.72855         2.38442
O         44.04502        31.64097        -1.87744
O         36.26605        28.70368         2.88458
O         50.62244        36.30679        -2.36046
O         39.55717        39.44472        -1.15758
O         43.13232        31.60480         1.64749
O         35.99728        31.18172         3.22639
O         46.11200        41.92653         2.61032
O         43.07839        36.29569        -0.45575
O         48.51983        40.27456        -0.88692
O         42.80982        44.66524         1.98552
O         41.91491        47.50292        -1.84163
O         45.08185        35.30312         2.29085
O         48.14336        29.54042        -3.14850
O         33.14986        38.09439        -3.38565
O         44.59870        26.95083         0.30763
O         40.77811        37.22064        -0.51628
O         41.59032        41.85800        -1.36862
O         48.38028        44.10730         3.03026
O         47.77666        35.30994         1.32228
O         39.74475        46.53974         0.92670
O         47.04823        30.83943         0.21651
O         34.11484        33.73977         2.78282
O         43.64863        42.44049         2.99618
H         42.85771        42.98277         3.20606
O         46.09844        37.67550         2.41296
H         45.68605        37.06303         3.06429
O         39.49122        33.70870         3.68493
H         38.78344        34.19254         4.16920
O         42.19210        33.55899         3.12721
H         41.41861        33.72936         3.71604
O         40.87460        31.89607        -1.19759
H         39.96839        31.63351        -1.47883
O         33.38760        36.03118         1.97593
H         33.80055        35.72395         2.81706
O         32.47047        29.93709        -0.46049
H         31.90634        29.37880        -1.03481
O         40.53400        29.04363         1.83866
H         41.12560        28.30148         2.10982
O         46.33651        34.28884        -1.86675
H         45.40970        34.58390        -2.01830
O         34.57088        43.38030        -3.03057
H         34.71559        44.24083        -3.47587
O         44.44590        46.57038         2.81859
H         45.04920        46.33127         3.55156
O         30.48008        41.90400        -0.71513
H         30.52719        41.00708        -0.31706
O         31.59700        33.56629         1.91434
H         31.84244        33.30422         2.83084
O         35.82608        35.94172         3.15735
H         36.47407        35.78919         3.88032
O         48.23492        32.97097         0.96736
H         47.91597        32.12200         1.34604
O         42.37316        39.35491        -1.34495
H         41.73391        38.93054        -1.95821
O         41.48676        29.88352        -2.77274
H         41.61413        30.86021        -2.61503
O         34.73224        44.64979         0.38558
H         35.42718        45.11661         0.90169
O         42.13126        27.26490        -2.37054
H         42.04248        28.16573        -2.76667
O         52.53423        42.41548         2.57869
H         52.76118        41.46719         2.67006
