         344
 CSIRO Nanostructure Databank - Neutral Graphene Oxide Data Set
C          1.43130         3.38654         0.28431
C          0.35340         4.05158         0.81867
C          1.21569         6.24530         0.15346
C          0.26331         5.47341         0.79677
C          1.19123         7.69850         0.13366
C          0.00870         8.39646         0.42394
C          1.15972        10.54676         0.36836
C         -0.01761         9.78696         0.49611
C          1.14484        11.99891         0.45601
C         -0.05689        12.72046         0.50549
C          1.12539        14.84764         0.49143
C         -0.06108        14.12001         0.49000
C          1.07152        16.34247         0.27481
C         -0.01354        17.06937         1.03435
C          1.16114        19.19685         0.69883
C          0.01446        18.42188         1.13033
C          1.12931        20.60234         0.58848
C         -0.05088        21.37564         0.63286
C          1.09991        23.50745         0.17633
C         -0.06710        22.75511         0.34458
C          1.13498        24.91412        -0.12738
C         -0.05676        25.67833        -0.24650
C          1.21426        27.69573        -0.72942
C         -0.01795        27.03698        -0.50423
C          1.27141        29.12502        -0.92290
C          3.69295         3.50190        -0.70026
C          2.50456         4.10893        -0.33552
C          3.59206         6.39277        -0.84126
C          2.32801         5.56106        -0.51834
C          3.61482         7.80988        -0.44045
C          2.40192         8.44865        -0.08252
C          3.62156        10.59558         0.12270
C          2.39327         9.86935         0.13153
C          3.61604        12.01672         0.32444
C          2.37972        12.71827         0.44717
C          3.60537        14.86321         0.56982
C          2.37216        14.15220         0.51077
C          3.60217        16.31492         0.57186
C          2.39370        17.03710         0.47209
C          3.64143        19.12581         0.38932
C          2.40195        18.45349         0.49970
C          3.68275        20.62698         0.54163
C          2.37573        21.33176         0.10856
C          3.64120        23.51423         0.13012
C          2.37981        22.80524         0.56461
C          3.65245        24.84872        -0.20482
C          2.38903        25.58067        -0.34360
C          3.68102        27.59649        -1.20185
C          2.41434        26.94219        -0.68975
C          3.72102        29.09226        -0.97549
C          2.46374        29.79283        -0.97976
C          6.10922         3.58372        -1.22790
C          4.87357         4.26151        -1.02430
C          6.06798         6.47187        -1.29879
C          4.84650         5.66765        -0.98275
C          6.08793         7.85379        -0.67631
C          4.85889         8.50954        -0.39518
C          6.08910        10.61897         0.02361
C          4.85774         9.91149        -0.06528
C          6.08518        12.03385         0.27394
C          4.84785        12.72911         0.37895
C          6.08052        14.83671         0.71359
C          4.84596        14.15468         0.56271
C          6.06818        16.28298         1.11471
C          4.83418        17.01597         0.63307
C          6.17684        19.07009         0.16108
C          4.85006        18.40801         0.45851
C          6.18157        20.57804         0.20475
C          4.88606        21.26187        -0.16793
C          6.20310        23.44472         0.13144
C          4.90445        22.73945         0.20833
C          6.23584        24.95880         0.05960
C          4.90812        25.57679        -0.37895
C          6.19986        27.62618        -0.81755
C          4.93662        26.89562        -0.75476
C          6.18991        29.07358        -0.87593
C          4.91855        29.75838        -0.89085
C          8.59155         3.59428        -1.40788
C          7.34007         4.29356        -1.24156
C          8.61297         6.45480        -1.22384
C          7.32967         5.69568        -1.11266
C          8.57581         7.85823        -0.64126
C          7.32141         8.54137        -0.51425
C          8.56275        10.63011         0.00246
C          7.32393         9.93034        -0.14604
C          8.56077        12.04379         0.32499
C          7.31500        12.73784         0.40622
C          8.56065        14.85179         0.78286
C          7.31095        14.14965         0.64667
C          8.56397        16.30501         0.82716
C          7.37491        16.99287         0.86074
C          8.63426        19.17005         0.61645
C          7.33249        18.49388         0.97498
C          8.64069        20.54256         0.33196
C          7.37197        21.23895         0.14351
C          8.67459        23.38640        -0.28477
C          7.37513        22.64253        -0.41215
C          8.66789        24.75769        -0.53949
C          7.35678        25.43959        -0.86795
C          8.66517        27.62535        -0.84609
C          7.40799        26.94339        -0.80033
C          8.65615        29.08139        -0.86508
C          7.39506        29.76197        -0.88185
C         11.05735         3.61582        -1.43529
C          9.81952         4.24357        -1.25086
C         11.03787         6.43207        -0.85476
C          9.77048         5.62654        -0.64127
C         11.05948         7.75747        -0.14120
C          9.77123         8.52898        -0.36319
C         11.07057        10.62197         0.03711
C          9.77658         9.92535        -0.11272
C         11.06753        12.05348         0.47563
C          9.75681        12.73429         0.59730
C         11.05661        14.83884         0.94065
C          9.77160        14.14168         0.80467
C         11.05837        16.29819         0.88031
C          9.84586        17.00819         0.80009
C         11.08404        19.14774         0.60662
C          9.84922        18.43729         0.67810
C         11.09633        20.57464         0.41973
C          9.87405        21.26304         0.22739
C         11.10220        23.42060         0.00645
C          9.88376        22.68864        -0.01895
C         11.10336        24.81275        -0.27270
C          9.88515        25.49059        -0.55856
C         11.17181        27.60788        -1.07035
C          9.86644        26.91023        -0.79569
C         11.12784        29.10183        -0.82333
C          9.86064        29.77283        -0.79178
C         13.49535         3.61894        -1.29221
C         12.31384         4.30300        -1.33228
C         13.60592         6.51875        -1.03766
C         12.32557         5.78570        -1.23259
C         13.60517         7.84018        -0.60997
C         12.34673         8.52729        -0.30516
C         13.57168        10.50043         0.52446
C         12.32564         9.83739         0.07649
C         13.52846        11.85658         1.18102
C         12.19039        12.62922         1.34071
C         13.49570        14.86488         1.34847
C         12.23273        14.13774         1.12857
C         13.54854        16.31682         1.08930
C         12.29944        17.02420         0.93404
C         13.52347        19.20275         1.01248
C         12.28861        18.43181         0.81328
C         13.56581        20.62182         0.61366
C         12.33758        21.30136         0.40088
C         13.56296        23.43144         0.33789
C         12.34888        22.72385         0.25355
C         13.54136        24.93483         0.49353
C         12.32911        25.58717        -0.14081
C         13.54965        27.75345        -0.00598
C         12.35083        26.92333        -0.40663
C         13.61784        29.06176        -0.82553
C         12.30504        29.78811        -0.72644
C         15.81433         3.68903        -0.38553
C         14.85878         4.24164        -1.44619
C         16.10022         6.65535        -1.62951
C         14.83836         5.81139        -1.50478
C         16.01839         8.18914        -1.36195
C         14.82696         8.64000        -0.53661
C         16.06036        10.69369         0.17896
C         14.84466         9.90479         0.03175
C         16.05062        11.98662         0.70239
C         14.87408        12.56888         1.46398
C         16.05348        14.84514         1.10911
C         14.81154        14.10291         1.41338
C         16.03566        16.24942         1.06857
C         14.78659        16.96670         1.10119
C         16.06367        19.16271         0.82483
C         14.82498        18.44234         1.15595
C         16.04485        20.55534         0.58904
C         14.79594        21.29619         0.52055
C         16.03137        23.43938         0.22506
C         14.80365        22.73155         0.36751
C         16.05725        24.85499         0.06582
C         14.83873        25.60515         0.09317
C         16.07380        27.69319        -0.26280
C         14.84846        26.98207        -0.09874
C         16.08960        29.12269        -0.40352
C         14.80382        29.92506        -0.39176
C         18.32981         3.38587         0.09142
C         17.13234         3.82926        -0.62555
C         18.44345         6.46261        -0.72035
C         17.39799         5.94637        -1.41470
C         18.56865         7.92862        -0.64001
C         17.33940         8.78528        -0.87018
C         18.53930        10.63032         0.23011
C         17.33535        10.09015        -0.18566
C         18.57186        11.95537         0.95401
C         17.28179        12.72853         0.82302
C         18.57861        14.84152         1.24799
C         17.28038        14.10607         0.98931
C         18.51566        16.31283         0.88579
C         17.28565        16.98861         0.90764
C         18.49404        19.13016         0.59127
C         17.27102        18.42046         0.75706
C         18.48116        20.55518         0.49117
C         17.28165        21.24477         0.40032
C         18.55890        23.42289         0.13528
C         17.27716        22.66374        -0.11181
C         18.55436        24.83833        -0.01281
C         17.29882        25.55181        -0.10070
C         18.54832        27.67977        -0.32331
C         17.30491        26.96781        -0.23694
C         18.53834        29.09709        -0.48110
C         17.28851        29.78924        -0.52359
C         19.39702         4.19381         0.25581
C         20.78872         6.30021         0.08511
C         19.40588         5.70769         0.18638
C         20.92795         7.64935         0.07160
C         19.77462         8.51760        -0.04037
C         21.01503        10.63073         0.36943
C         19.78647         9.89777         0.17272
C         21.02696        11.99190         0.45280
C         19.81496        12.75288         0.62353
C         20.98683        14.91282         0.48835
C         19.80411        14.12884         0.71577
C         20.95993        16.27367         0.47717
C         19.72726        17.01481         0.61065
C         20.87717        19.15473        -0.05401
C         19.71752        18.41616         0.42853
C         20.90176        20.50438        -0.05666
C         19.80470        21.26561         0.64547
C         20.96966        23.46818         0.40109
C         19.76358        22.74262         0.33793
C         20.98566        24.83725         0.19284
C         19.78679        25.55171        -0.01816
C         20.98624        27.73031        -0.32278
C         19.79151        26.99221        -0.22393
C         20.96641        29.11649        -0.50503
C         19.75890        29.80116        -0.57691
O          5.71762        22.98089         1.42475
O         14.13342        18.97865         2.34012
O         17.45238         4.59585        -1.77444
O         11.34091        11.75196        -0.92588
O         11.46337         6.46913        -2.23213
O          2.58649         6.05758        -1.86762
O         15.32361         6.29183        -2.80693
O         13.48335        10.64498         2.01171
O         18.32313         8.63007        -1.94036
O         14.15824        14.56998         2.64738
O         11.07413         7.44155         1.30565
H         11.11934         8.28693         1.80230
O          5.92329        16.29011         2.58756
H          6.05853        17.23066         2.86506
O          6.00365         6.74341        -2.78466
H          5.05391         6.84345        -3.01882
O          6.44712        18.75294        -1.23993
H          5.78811        19.25841        -1.77130
O         17.21754        22.49722        -1.58740
H         17.20576        23.39821        -1.97660
O         13.40306        25.20790         1.94383
H         14.11760        24.71582         2.40280
O         14.57737        30.47732         0.91064
H         14.24539        29.74753         1.48587
O          4.76708        21.09589        -1.60345
H          5.51471        21.61482        -2.00371
O         11.40491        27.45673        -2.53362
H         11.42986        26.49436        -2.72449
O          2.36924        22.82082         2.02742
H          2.54467        23.74025         2.31754
O          3.91992        20.83248         1.95000
H          3.07710        20.70232         2.43250
O          9.50298         5.39639         0.75883
H          9.92057         6.11738         1.28932
O         18.68855        11.65114         2.38410
H         18.70695        12.51663         2.85395
O         20.12034        21.19339         2.08094
H         20.16137        20.24343         2.32257
O         15.78939         8.81823        -2.64729
H         16.62271         8.72332        -3.16039
O         13.86005        28.70803        -2.20846
H         13.03182        28.29966        -2.56801
O          6.53128        25.45449         1.38190
H          6.14244        24.80788         2.01609
O          6.97259        25.08676        -2.22633
H          7.60869        25.51049        -2.83893
O          2.27410        21.36703        -1.33053
H          2.53637        20.49260        -1.68558
O         11.76912        12.43814         2.71630
H         12.23340        11.63648         3.05274
O         18.90426         6.08569         1.52910
H         19.59860         5.85661         2.18277
O         15.21696        12.26358         2.84083
H         14.67359        12.86105         3.40479
O          7.05245        18.81134         2.37920
H          7.88821        18.71600         2.88327
O          8.83569         6.60908        -2.65195
H          7.97384         6.85920        -3.06011
O          7.11859        22.47328        -1.85489
H          7.90818        22.04353        -2.24682
O         15.28537         3.74824        -2.73418
H         15.48326         4.53531        -3.29792
O         18.74477        14.78416         2.71740
H         17.98498        15.26262         3.11464
O          3.63034        27.43561        -2.66577
H          3.64109        26.47291        -2.85379
O          0.73019        16.49472        -1.15388
H          0.64913        17.45677        -1.32823
O         13.35462        28.09111         1.40174
H         13.30359        27.23071         1.88824
H          1.50479         2.29220         0.36144
H         -0.44520         3.48351         1.31590
H         -0.58310         5.95066         1.31019
H         -0.92764         7.84107         0.57265
H         -0.97786        10.28126         0.69348
H         -1.02160        12.19616         0.49806
H         -1.02526        14.64532         0.44677
H         -0.89029        16.51316         1.39712
H         -0.83645        18.95119         1.58443
H         -1.01458        20.87971         0.82137
H         -1.05073        23.23842         0.24715
H         -1.03043        25.19240        -0.09612
H         -0.95241        27.61511        -0.54668
H          0.32480        29.68519        -0.93451
H          3.79085         2.41023        -0.60174
H          2.47803        30.89287        -1.01088
H          6.11692         2.48602        -1.28984
H          4.92183        30.85791        -0.82306
H          8.56357         2.53587        -1.70975
H          7.39281        30.86213        -0.90928
H         11.08115         2.54587        -1.69574
H          9.85371        30.86874        -0.68996
H         13.47808         2.51937        -1.34011
H         12.29935        30.88292        -0.60761
H         15.43112         3.12438         0.47506
H         14.90883        30.78626        -1.10095
H         18.38926         2.33440         0.41668
H         17.29459        30.88382        -0.63545
H         20.28636         3.76848         0.75266
H         21.67056         5.64514         0.14698
H         21.93184         8.09528         0.13205
H         21.97016        10.09015         0.31691
H         21.99558        12.51060         0.45640
H         21.94038        14.40371         0.29336
H         21.89643        16.82169         0.31105
H         21.71849        18.59763        -0.49010
H         21.76868        21.04350        -0.46569
H         21.90977        22.93976         0.61135
H         21.94731        25.36598         0.22422
H         21.95870        27.22398        -0.26178
H         21.91512        29.66581        -0.58256
H         19.74424        30.89297        -0.70401
