         410
 CSIRO Nanostructure Databank - Neutral Graphene Oxide Data Set
C         27.87675        27.42517        -0.70868
C         27.84569        28.83696        -0.72971
C         26.68571        29.57766        -0.42985
C         27.91004        31.70779        -0.63786
C         26.71290        30.96229        -0.42038
C         27.89203        33.15573        -0.58329
C         26.67776        33.88111        -0.48851
C         27.86897        35.99405        -0.32682
C         26.65734        35.26008        -0.40279
C         27.87145        37.42631        -0.18745
C         26.82547        38.26681        -0.66154
C         27.78915        40.25403         0.54648
C         26.81858        39.61643        -0.42262
C         27.90138        41.75119         0.39566
C         26.72762        42.50949         0.20986
C         27.98487        44.57908         0.41251
C         26.76357        43.89209         0.18494
C         28.02467        45.99443         0.48209
C         30.33906        27.35816        -0.74548
C         29.06813        26.71577        -0.73412
C         30.38284        28.78860        -1.09616
C         29.06684        29.57108        -1.08746
C         30.37550        31.70809        -1.05675
C         29.12210        31.02940        -0.90493
C         30.38070        33.16940        -0.89488
C         29.12061        33.87414        -0.64739
C         30.34411        36.05096        -0.51358
C         29.09350        35.27225        -0.45471
C         30.38669        37.34326         0.22217
C         29.06086        38.08881         0.36545
C         30.33557        40.21624         0.58703
C         29.11916        39.54973         0.48015
C         30.37310        41.65839         0.70455
C         29.14522        42.40338         0.57125
C         30.39841        44.52041         0.92633
C         29.18462        43.83350         0.61443
C         30.37722        45.92444         1.09877
C         29.19176        46.64313         0.84853
C         32.75561        24.59257        -0.07554
C         31.57768        25.28406        -0.21853
C         32.82076        27.47352        -0.26814
C         31.54159        26.68687        -0.47124
C         32.84774        28.86193        -0.89094
C         31.65432        29.55066        -1.05478
C         32.85039        31.71862        -1.48176
C         31.57736        30.98375        -1.26142
C         32.84007        33.20367        -1.26876
C         31.57203        33.87092        -0.93694
C         32.89986        35.97422        -0.30807
C         31.64029        35.33909        -0.77996
C         32.87685        37.37905         0.10274
C         31.63837        38.10941         0.24645
C         32.81476        40.21401         0.72382
C         31.59706        39.48789         0.52451
C         32.85011        41.61464         0.87608
C         31.60474        42.34829         0.85792
C         32.87434        44.44864         1.17171
C         31.63201        43.76895         1.01420
C         32.87451        45.87305         1.57390
C         31.54578        46.59982         1.78893
C         32.80787        48.76389         1.32581
C         31.65008        48.08681         1.54876
C         35.32859        23.09152        -0.28065
C         35.25559        24.47241        -0.14272
C         34.02677        25.25216        -0.23700
C         35.35035        27.29217        -0.68743
C         34.05199        26.62221        -0.48755
C         35.43152        28.73670        -1.07890
C         34.12515        29.42887        -1.50557
C         35.39114        31.69146        -0.97751
C         34.17430        30.97350        -1.46378
C         35.37030        33.08521        -0.79103
C         34.14291        33.90956        -0.97054
C         35.33630        35.85314         0.11644
C         34.07341        35.25537        -0.33764
C         35.35122        37.32274         0.47722
C         34.06338        38.03656         0.41756
C         35.41307        40.23180         0.69005
C         34.03886        39.43277         0.82345
C         35.30342        41.66487         0.52742
C         34.10260        42.33615         0.81251
C         35.34075        44.51973         0.82484
C         34.10126        43.78533         0.93043
C         35.36004        45.95200         0.91773
C         34.14679        46.67201         1.33709
C         35.25411        48.83287         0.76997
C         34.08193        48.12799         1.14502
C         35.26953        50.25154         0.59237
C         37.77520        23.04510         0.11363
C         36.54705        22.39883        -0.13482
C         37.78483        24.46448         0.22825
C         36.50103        25.18198         0.17539
C         37.88098        27.31610        -0.31763
C         36.53841        26.66831        -0.02884
C         37.74230        28.81623        -0.13377
C         36.63176        29.49309        -0.59522
C         37.75865        31.66396        -0.33550
C         36.58333        30.95970        -0.62251
C         37.80449        33.08299        -0.40509
C         36.57911        33.79349        -0.49055
C         37.81204        35.91044        -0.25359
C         36.60062        35.19816        -0.27097
C         37.82921        37.35554        -0.07986
C         36.60357        38.07782         0.23201
C         37.80539        40.20083        -0.09165
C         36.57193        39.45547         0.20034
C         37.76236        41.68687        -0.14212
C         36.42595        42.44965        -0.12038
C         37.77595        44.51072         0.43141
C         36.54448        43.83841         0.46534
C         37.83717        45.97100         0.79893
C         36.52376        46.69825         0.68451
C         37.67032        48.86057         0.21607
C         36.49563        48.12442         0.58441
C         37.65064        50.24668         0.03585
C         36.41802        50.92648         0.24272
C         40.28569        20.22080         0.12999
C         39.09222        20.90186         0.02055
C         40.22746        23.00106         0.51623
C         39.03484        22.30962         0.20854
C         40.17940        24.44117         0.82580
C         38.96978        25.20015         0.46601
C         40.24898        27.30897         0.54078
C         39.02716        26.61472         0.39354
C         40.22433        28.78481         0.63756
C         38.91258        29.52337         0.45018
C         40.23296        31.73615         0.37018
C         38.93557        31.00641         0.27282
C         40.33011        33.00490        -0.48729
C         39.04015        33.79136        -0.35835
C         40.31211        35.89390        -0.62053
C         39.03734        35.17971        -0.40392
C         40.30413        37.39713        -0.47797
C         39.03628        38.06237        -0.13839
C         40.29699        40.16739         0.10534
C         39.08842        39.47836         0.05596
C         40.29177        41.61187         0.42516
C         38.99772        42.37554         0.34781
C         40.27556        44.51364         0.29950
C         39.01765        43.84410         0.29688
C         40.29244        45.93182         0.17133
C         38.98387        46.64079         0.08768
C         40.19077        48.86737        -0.07933
C         38.90974        48.11031        -0.11251
C         40.17439        50.30240        -0.41637
C         38.83579        50.99106        -0.59295
C         40.13110        53.11418        -0.23376
C         38.94811        52.45761        -0.23519
C         42.74276        20.21969         0.40132
C         41.49978        20.91410         0.37307
C         42.72925        23.04403         0.67022
C         41.47864        22.32716         0.55610
C         42.75758        24.46736         0.72642
C         41.50631        25.20607         0.91638
C         42.72833        27.35858         0.59508
C         41.49244        26.65534         0.68805
C         42.72220        28.81349         0.52499
C         41.51575        29.50518         0.58180
C         42.81301        31.70554         0.40237
C         41.50690        30.97969         0.63343
C         42.80887        33.12576        -0.01873
C         41.58930        33.80537        -0.20925
C         42.80447        35.93191        -0.34227
C         41.59194        35.19455        -0.39607
C         42.79705        37.37446        -0.28207
C         41.57694        38.09335        -0.23049
C         42.78895        40.21275         0.08319
C         41.55957        39.48516        -0.00881
C         42.75870        41.63911         0.29183
C         41.56393        42.36320         0.38437
C         42.73969        44.55004         0.27476
C         41.53006        43.80388         0.35922
C         42.74160        45.94572         0.03890
C         41.48701        46.62242         0.00516
C         42.71165        48.77645        -0.51310
C         41.47371        48.10179        -0.03254
C         42.65974        50.26878        -0.66605
C         41.36616        50.98681        -0.48423
C         42.61964        53.08689        -0.40101
C         41.39728        52.42886        -0.41889
C         43.92775        20.90408         0.52419
C         45.20142        23.05457         0.63305
C         43.95692        22.32694         0.61977
C         45.20406        24.47824         0.59784
C         43.96323        25.19574         0.62968
C         45.20656        27.34594         0.51202
C         43.95695        26.63977         0.59266
C         45.21924        28.77133         0.40336
C         43.99598        29.51644         0.39463
C         45.26570        31.61207         0.00025
C         44.03894        30.91593         0.23134
C         45.28418        33.06688        -0.14359
C         44.03871        33.80583        -0.14809
C         45.27501        35.95388        -0.37036
C         44.04089        35.22611        -0.29079
C         45.25207        37.36599        -0.36461
C         44.02819        38.09012        -0.20825
C         45.27306        40.24608        -0.03464
C         44.02266        39.51711        -0.05226
C         45.28925        41.64393         0.16728
C         44.03422        42.33517         0.49036
C         45.27715        44.57833         0.18152
C         44.02711        43.87564         0.49222
C         45.24466        45.98467        -0.02234
C         43.98716        46.68549        -0.07782
C         45.20219        48.82854        -0.40927
C         43.99668        48.07798        -0.29573
C         45.17329        50.25853        -0.55760
C         43.93202        51.01042        -0.55776
C         43.85872        52.39318        -0.44816
C         47.63871        23.06291         0.61446
C         46.44857        22.37424         0.65892
C         47.66873        24.48042         0.54147
C         46.44120        25.19586         0.55700
C         47.68804        27.33664         0.50317
C         46.44095        26.63090         0.51312
C         47.70485        28.75677         0.41373
C         46.46616        29.46805         0.30001
C         47.74296        31.54779        -0.20421
C         46.46161        30.87143         0.03908
C         47.76397        33.05817        -0.35566
C         46.48256        33.77853        -0.26121
C         47.75861        35.88948        -0.38015
C         46.51945        35.21650        -0.35395
C         47.81105        37.33251        -0.62538
C         46.48734        38.12280        -0.59043
C         47.71898        40.25676        -0.18139
C         46.51099        39.56504        -0.25291
C         47.73388        41.67908        -0.00406
C         46.49646        42.38579         0.10532
C         47.72182        44.52055        -0.04080
C         46.49610        43.83082         0.11616
C         47.72433        45.99804         0.03173
C         46.45638        46.72854        -0.13251
C         47.69892        48.86584        -0.48841
C         46.46142        48.12998        -0.32582
C         47.61948        50.26971        -0.66382
C         46.40989        50.93870        -0.67630
C         50.15465        24.48219         0.25073
C         48.92044        25.19611         0.49925
C         50.19779        27.31300         0.69839
C         48.91826        26.59660         0.55763
C         50.22437        28.78979         0.55335
C         48.95939        29.49286         0.45777
C         50.16309        31.66811         0.48740
C         48.96397        30.87002         0.24855
C         50.21515        33.10831         0.16857
C         49.01939        33.79364        -0.08855
C         50.22763        35.92832         0.00785
C         49.00610        35.21008        -0.15196
C         50.20850        37.37913        -0.01244
C         49.05521        38.05619        -0.31913
C         50.27304        40.28447        -0.22160
C         49.00284        39.53945        -0.40844
C         50.25288        41.70277         0.28188
C         48.95661        42.41187        -0.01202
C         50.20523        44.50752        -0.46721
C         48.94500        43.80808        -0.09257
C         50.22304        45.99709        -0.60884
C         49.00851        46.76034        -0.18291
C         50.19815        48.81171        -0.78970
C         48.96206        48.19298        -0.52146
C         51.35736        25.10443         0.17580
C         52.74301        27.24929         0.15467
C         51.48858        26.51758         0.54432
C         52.69476        28.75983         0.11382
C         51.43025        29.45831         0.43788
C         52.73579        31.66430         0.33301
C         51.49491        30.91209         0.60190
C         52.71184        33.06857         0.28060
C         51.45673        33.80510         0.23781
C         52.71958        35.95349         0.17127
C         51.45594        35.22490         0.15738
C         52.73702        37.35294         0.18336
C         51.45543        38.10299         0.45203
C         52.71829        40.24008        -0.00409
C         51.52950        39.54415         0.03286
C         52.72211        41.69079        -0.16820
C         51.51711        42.42430        -0.13130
C         52.71139        44.53272        -0.55040
C         51.50188        43.81030        -0.35669
C         52.72255        45.97091        -0.70585
C         51.51083        46.72329        -0.65950
C         51.42163        48.12514        -0.76576
C         55.19192        27.35010         0.32954
C         54.05410        26.61703         0.38270
C         55.17771        28.79455         0.20170
C         53.96478        29.50590         0.21010
C         55.20118        31.63763         0.17651
C         53.96482        30.93340         0.23807
C         55.18752        33.07939         0.15716
C         53.95550        33.78922         0.18201
C         55.18904        35.93047         0.09076
C         53.95745        35.22168         0.14060
C         55.19679        37.37019         0.04742
C         53.96573        38.08423         0.10259
C         55.19244        40.22665        -0.11462
C         53.97918        39.51976         0.03180
C         55.19441        41.67357        -0.29753
C         53.95497        42.38659        -0.33904
C         55.18049        44.50194        -0.67238
C         53.94364        43.80652        -0.51910
C         55.16617        45.91882        -0.85630
C         53.98576        46.61970        -0.86822
C         56.40162        29.51379         0.17438
C         56.41076        30.89147         0.13971
C         56.40272        33.81781         0.10707
C         56.40428        35.19047         0.07750
C         56.40697        38.11027        -0.04151
C         56.40610        39.48467        -0.12226
C         56.39443        42.40050        -0.44862
C         56.39097        43.77689        -0.63478
O         37.88488        40.96421        -1.40896
O         39.33185        31.76219         1.49372
O         50.78473        31.38363         1.79121
O         39.47423        41.87238         1.64510
O         47.15002        37.78830        -1.85320
O         48.55646        46.47363         1.18218
O         34.88901        39.74046         1.95733
O         50.01630        45.15659        -1.79658
O         52.61031        27.94320        -1.12761
O         36.33215        26.17915         1.30111
O         33.75686        46.17983         2.70401
O         49.75490        40.08751        -1.57455
O         47.86251        32.17463        -1.53774
O         33.59499        31.45654        -2.72160
O         33.57734        33.91247        -2.32157
O         42.24810        31.53873         1.76712
O         38.72398        47.18191        -1.24628
O         40.44647        32.53054        -1.81250
O         30.95764        36.10878        -1.84163
O         40.28326        36.74709        -1.80796
O         35.38022        36.29162         1.52283
O         35.72162        27.68119        -2.06597
O         29.67281        37.33153         1.48381
O         50.98648        26.85437         1.87008
O         29.67047        29.09136        -2.34054
O         39.32575        29.13519         1.78776
O         40.75871        24.79177         2.11869
O         44.08978        43.10246         1.73847
O         42.60082        49.36790        -1.84998
O         40.92156        48.66689         1.20969
O         33.93852        29.03080        -2.88675
H         33.49703        29.78777        -3.34619
O         38.53662        50.95670        -2.03239
H         39.31610        51.31634        -2.50682
O         51.31712        38.14355         1.92414
H         52.07828        38.64998         2.27997
O         50.30871        41.59425         1.74362
H         50.24983        42.49759         2.12026
O         31.23139        46.47150         3.21159
H         32.09314        46.53875         3.68582
O         27.25335        40.02968         1.90262
H         27.41027        39.08833         2.13033
O         36.02682        42.67041        -1.50449
H         36.50219        41.99291        -2.04509
O         32.84314        27.78393         1.19430
H         32.92107        26.92904         1.67161
O         38.19414        46.03655         2.21718
H         37.50795        45.55731         2.72818
O         38.22454        27.08941        -1.71707
H         37.44614        27.38011        -2.26135
H         26.93067        26.87961        -0.57875
H         25.75054        29.04602        -0.20277
H         25.78091        31.49419        -0.19163
H         25.71830        33.34813        -0.50066
H         25.69670        35.78970        -0.34143
H         26.02838        37.82428        -1.27792
H         26.02968        40.23135        -0.87889
H         25.76183        41.99679         0.10423
H         25.83992        44.47038         0.04039
H         27.10472        46.56898         0.30301
H         29.01693        25.62384        -0.63012
H         29.17696        47.73461         0.96584
H         32.73024        23.51448         0.13071
H         30.63549        24.72111        -0.17149
H         32.75392        49.85906         1.24465
H         30.73738        48.67604         1.71753
H         34.42688        22.51178        -0.52239
H         34.34242        50.82575         0.72153
H         36.52108        21.30632        -0.24167
H         36.36107        52.01266         0.08995
H         40.31220        19.12985        -0.00361
H         38.17730        20.33778        -0.20327
H         40.15602        54.20015        -0.05453
H         38.02288        53.03675        -0.10180
H         42.74448        19.12573         0.29168
H         42.63705        54.18182        -0.29977
H         44.86623        20.33505         0.51210
H         44.77616        52.99175        -0.36222
H         48.57550        22.49282         0.65526
H         46.47997        21.27933         0.72505
H         48.54173        50.85417        -0.78140
H         46.41845        52.02896        -0.80817
H         50.10255        23.41626        -0.00805
H         50.23073        49.89264        -0.98528
H         52.24326        24.56226        -0.18465
H         52.33777        48.72022        -0.88506
H         56.16766        26.86095         0.46749
H         54.09191        25.54187         0.61048
H         56.12246        46.44665        -0.98280
H         54.01647        47.70913        -1.00518
H         57.34903        28.95618         0.16612
H         57.37771        31.40877         0.09407
H         57.36599        33.29237         0.09230
H         57.36883        35.71254         0.04194
H         57.37239        37.58878        -0.06577
H         57.36953        40.00285        -0.21186
H         57.36239        41.88334        -0.41912
H         57.34275        44.31485        -0.75126
