         620
 CSIRO Nanostructure Databank - Neutral Graphene Oxide Data Set
C         23.00241        27.42202         1.60780
C         22.94896        28.76741         1.46150
C         22.88290        31.72871         0.78815
C         22.88524        33.11412         0.68979
C         22.94082        36.02581         0.22610
C         22.96388        37.43622         0.10493
C         22.99288        40.36679         0.09976
C         23.01846        41.74667         0.05720
C         23.07957        44.63719        -0.29734
C         23.10810        46.01124        -0.42602
C         25.39754        24.54705         1.12037
C         24.22086        25.25545         1.36188
C         25.34445        27.35032         0.79058
C         24.16138        26.64875         1.20405
C         25.31503        28.76175         0.71793
C         24.00457        29.49375         0.66101
C         25.29904        31.71705         0.87636
C         24.08374        31.00147         0.86429
C         25.32539        33.12915         0.69401
C         24.09176        33.83789         0.58926
C         25.38546        35.91528         0.04326
C         24.09561        35.26295         0.30949
C         25.41162        37.44437        -0.09324
C         24.14269        38.16618         0.05630
C         25.43775        40.29795         0.12652
C         24.18891        39.61374         0.10758
C         25.46246        41.72538         0.12844
C         24.24139        42.45334         0.05387
C         25.48482        44.59356         0.15690
C         24.26113        43.89992        -0.02668
C         25.47785        46.01272         0.13917
C         24.31052        46.72444        -0.20887
C         25.53564        48.84248        -0.40936
C         24.37987        48.14077        -0.49933
C         27.93564        23.11086         0.60650
C         27.84255        24.48894         0.47018
C         26.59580        25.21202         0.75769
C         27.76248        27.33094         0.16066
C         26.56339        26.61401         0.62492
C         27.76564        28.83673         0.17742
C         26.57866        29.48667         0.79576
C         27.83720        31.71767         0.77208
C         26.58420        31.00080         0.97871
C         27.83493        33.13915         0.76836
C         26.59056        33.84186         0.63792
C         27.85951        35.95521         0.45553
C         26.63610        35.23266         0.41717
C         27.87667        37.39506         0.32665
C         26.68135        38.14574         0.16037
C         27.92823        40.25954         0.20331
C         26.68282        39.56061         0.18256
C         27.94835        41.71375         0.21165
C         26.71579        42.43400         0.20709
C         27.95991        44.54391         0.46403
C         26.72976        43.85609         0.29682
C         27.96423        46.00515         0.70070
C         26.68316        46.76382         0.52416
C         28.06334        48.90083         0.02731
C         26.73313        48.25833         0.22366
C         28.11503        50.27045        -0.32191
C         30.32643        23.03366         0.05353
C         29.16645        22.41006         0.44617
C         30.26912        24.48419        -0.35231
C         29.04227        25.22685         0.13127
C         30.29093        27.36564         0.11837
C         29.05291        26.61276         0.10157
C         30.30417        28.76736         0.36092
C         29.08788        29.61200         0.04280
C         30.25908        31.63205         0.92793
C         29.06724        30.98551         0.70502
C         30.27015        33.07325         1.37157
C         29.05600        33.84645         0.89274
C         30.32079        35.97770         0.83699
C         29.08381        35.25637         0.74892
C         30.35069        37.36894         0.63323
C         29.11636        38.09680         0.41090
C         30.41306        40.19738         0.09472
C         29.12417        39.50696         0.26309
C         30.44012        41.71886         0.08344
C         29.16646        42.43484         0.25963
C         30.46920        44.56111         0.42398
C         29.19204        43.84565         0.41793
C         30.50961        45.96876         0.36426
C         29.27350        46.75516         0.55927
C         30.51364        48.82274        -0.11122
C         29.26539        48.18329         0.15621
C         30.54067        50.19599        -0.48826
C         29.31625        50.90222        -0.56778
C         32.85571        20.24608        -0.30338
C         31.65357        20.91779        -0.12645
C         32.80679        23.05972        -0.19598
C         31.59504        22.32788        -0.08767
C         32.78449        24.51563        -0.14576
C         31.55984        25.22580        -0.10697
C         32.74425        27.38100         0.13859
C         31.53343        26.65361         0.05106
C         32.74621        28.76033         0.45552
C         31.51355        29.44174         0.60114
C         32.78452        31.62232         0.87482
C         31.52030        30.84783         1.15488
C         32.77280        33.05630         0.97303
C         31.57528        33.76897         1.08280
C         32.84486        35.92352         0.87556
C         31.57178        35.25775         1.31210
C         32.84075        37.34150         0.75236
C         31.60300        38.08835         0.67577
C         32.85010        40.23025         0.53784
C         31.65155        39.48800         0.44496
C         32.90125        41.66242         0.48563
C         31.70677        42.41129         0.37461
C         32.95187        44.53782         0.49917
C         31.70685        43.83232         0.43421
C         32.95052        45.95355         0.44124
C         31.74363        46.67344         0.29430
C         32.96991        48.80869        -0.07898
C         31.75697        48.11263         0.05403
C         33.01863        50.15911        -0.55160
C         31.79704        50.84431        -0.78234
C         33.02578        52.77204        -1.62555
C         31.83464        52.16390        -1.30952
C         35.42333        18.84902        -0.80007
C         35.33870        20.25485        -0.64974
C         34.07684        20.94359        -0.42342
C         35.27951        23.10863        -0.38200
C         34.04717        22.37003        -0.33810
C         35.24818        24.53751        -0.23180
C         34.01384        25.21983        -0.14450
C         35.25167        27.39084         0.19131
C         34.00908        26.71672        -0.31132
C         35.22683        28.77491         0.50823
C         33.99261        29.48410         0.59210
C         35.25666        31.59785         0.87703
C         33.99541        30.90363         0.77063
C         35.26838        33.05527         0.89059
C         34.04681        33.76066         0.91772
C         35.31143        35.85691         0.64415
C         34.06441        35.19088         0.84124
C         35.29517        37.29686         0.40550
C         34.05760        38.02946         0.63481
C         35.40852        40.21670         0.80655
C         34.07756        39.47810         0.81137
C         35.39714        41.66573         0.57805
C         34.16883        42.36732         0.54608
C         35.44631        44.46539         0.45717
C         34.19432        43.79809         0.51644
C         35.51361        45.93372         0.59337
C         34.21001        46.69836         0.63860
C         35.55038        48.82865         0.00179
C         34.23045        48.16656         0.34537
C         35.52364        50.13096        -0.69736
C         34.27502        50.80129        -0.87094
C         35.51090        52.74578        -1.79534
C         34.27050        52.11155        -1.43165
C         35.54229        54.06802        -2.32461
C         37.83560        18.93365        -1.20974
C         36.62626        18.20990        -1.05815
C         37.76304        20.33873        -1.06493
C         36.54224        21.00471        -0.76282
C         37.72640        23.19968        -0.60966
C         36.51095        22.44214        -0.58952
C         37.70361        24.60577        -0.35127
C         36.47347        25.27616        -0.17229
C         37.69723        27.38486         0.33449
C         36.46265        26.68968         0.12227
C         37.69329        28.76075         0.67296
C         36.45890        29.46251         0.75642
C         37.70625        31.60022         1.35547
C         36.44355        30.87178         0.96662
C         37.75069        32.96293         0.70870
C         36.50301        33.75007         0.76041
C         37.82016        35.87441         0.55631
C         36.54747        35.16177         0.62675
C         37.88602        37.27211         0.60392
C         36.64956        38.04273         0.39374
C         37.87194        40.16645         0.62809
C         36.65463        39.48215         0.61255
C         37.87956        41.60018         0.53921
C         36.64184        42.32890         0.46676
C         37.92127        44.43875         0.25398
C         36.66164        43.75123         0.38095
C         37.95126        45.85449         0.06717
C         36.75477        46.63018         0.18005
C         37.98636        48.63503        -0.52022
C         36.77412        47.99968        -0.10554
C         37.99254        50.01156        -0.93552
C         36.73822        50.72483        -1.08641
C         37.97616        52.69103        -1.97150
C         36.74065        52.05306        -1.62930
C         37.97553        54.01693        -2.48484
C         36.72696        54.67859        -2.65714
C         40.42072        16.22906        -1.89304
C         39.20176        16.85937        -1.68012
C         40.34577        18.97060        -1.36540
C         39.12259        18.25195        -1.43745
C         40.31465        20.44530        -1.37935
C         38.96650        21.15495        -1.29217
C         40.17570        23.28741        -0.88350
C         38.96533        22.56716        -0.89345
C         40.16122        24.68487        -0.59344
C         38.93424        25.34111        -0.30372
C         40.16429        27.41151         0.22654
C         38.93075        26.71082         0.08255
C         40.18096        28.76346         0.70616
C         38.94880        29.46367         0.85770
C         40.22270        31.53905         1.21820
C         38.98001        30.84356         1.09611
C         40.28954        32.95452         1.11396
C         39.08687        33.65074         0.62523
C         40.40336        35.86672         0.81089
C         39.09363        35.13571         0.47355
C         40.33047        37.31348         1.09390
C         39.10728        37.99331         0.85951
C         40.28730        40.16878         0.97494
C         39.09605        39.44038         0.81429
C         40.32998        41.55253         0.68018
C         39.11502        42.27250         0.45221
C         40.36723        44.36104         0.01975
C         39.13483        43.70246         0.23950
C         40.40244        45.74773        -0.21936
C         39.18592        46.50175        -0.21076
C         40.43996        48.54137        -0.82166
C         39.20114        47.89553        -0.51555
C         40.45285        49.92361        -1.14913
C         39.21201        50.64364        -1.24879
C         40.43021        52.65247        -2.03592
C         39.22124        52.00977        -1.74626
C         40.44124        53.96160        -2.60185
C         39.21997        54.66335        -2.81392
C         40.48428        56.60340        -3.58701
C         39.27595        55.99613        -3.31021
C         42.91750        16.32981        -2.06704
C         41.63807        16.94178        -1.79361
C         42.87106        19.03356        -1.22510
C         41.59210        18.31743        -1.47419
C         42.81391        20.53247        -0.97446
C         41.51791        21.22192        -1.09063
C         42.66892        23.37948        -0.98966
C         41.45006        22.60958        -1.00913
C         42.63970        24.77396        -0.83758
C         41.37959        25.42581        -0.56082
C         42.66161        27.41364         0.12348
C         41.36057        26.76882        -0.15648
C         42.66735        28.66867         0.91396
C         41.40077        29.41657         1.06464
C         42.62735        31.47313         1.98936
C         41.42775        30.77926         1.36419
C         42.70219        32.94832         1.68275
C         41.53195        33.66603         1.34390
C         42.68982        35.83783         1.94573
C         41.55565        35.09045         1.27518
C         42.73925        37.30928         1.59951
C         41.53096        38.00671         1.41027
C         42.76575        40.24578         1.52726
C         41.43802        39.50096         1.67871
C         42.78794        41.59369         0.89481
C         41.59953        42.22331         0.55838
C         42.88268        44.32152         0.00934
C         41.61417        43.53621        -0.18344
C         42.89015        45.71305        -0.28411
C         41.65665        46.42220        -0.44572
C         42.91149        48.47622        -0.97755
C         41.66800        47.80749        -0.74706
C         42.90724        49.86279        -1.34162
C         41.69878        50.56885        -1.41125
C         42.94604        52.57540        -2.28581
C         41.73220        52.06995        -1.54530
C         42.91866        53.80695        -2.89724
C         41.68438        54.56714        -2.97319
C         42.97589        56.53370        -3.72676
C         41.70216        55.89399        -3.44020
C         44.08669        17.04350        -2.06817
C         45.33669        19.17804        -1.69136
C         44.15026        18.42907        -1.68404
C         45.32583        20.62333        -1.34993
C         44.02618        21.33403        -1.20697
C         45.06424        23.54442        -1.65548
C         43.92456        22.70594        -1.21645
C         45.03394        24.99554        -1.35822
C         43.84847        25.55066        -0.93529
C         45.11053        27.75674        -0.60450
C         43.76855        27.05214        -0.85152
C         45.15674        28.94398         0.31025
C         43.95793        29.39756         1.10543
C         45.22040        31.54370         1.63169
C         43.95594        30.76757         1.71118
C         45.24147        32.90512         1.75700
C         43.96520        33.64668         2.14485
C         45.20366        35.79983         1.69979
C         44.00490        35.11762         1.80514
C         45.21346        37.25471         1.58908
C         43.99881        37.97076         1.60113
C         45.28841        40.09749         1.09758
C         44.04065        39.45208         1.54916
C         45.26530        41.51941         0.81616
C         44.06265        42.23579         0.68052
C         45.30106        44.38012         0.28448
C         44.07759        43.64980         0.30693
C         45.35508        45.73341        -0.10699
C         44.13108        46.41654        -0.38912
C         45.38957        48.46389        -1.00059
C         44.13851        47.78502        -0.79110
C         45.39798        49.80738        -1.45651
C         44.16727        50.52060        -1.64178
C         45.41996        52.45949        -2.52365
C         44.17615        51.82453        -2.16760
C         45.42858        53.73261        -3.14537
C         44.12855        54.32459        -3.64972
C         44.12591        55.83190        -3.75635
C         47.74275        19.38123        -2.32749
C         46.61359        18.63466        -2.06960
C         47.76653        20.81840        -2.29049
C         46.55889        21.43758        -1.69041
C         47.54460        23.74246        -2.19467
C         46.36455        22.88681        -1.96172
C         47.29068        25.09653        -2.25183
C         46.23372        25.78013        -1.54052
C         47.65619        27.75953        -0.74262
C         46.38677        27.08700        -1.01484
C         47.71338        28.90822         0.12552
C         46.48869        29.41248         0.79960
C         47.75671        31.49047         1.69672
C         46.47484        30.74649         1.52982
C         47.71003        32.95621         1.80224
C         46.51053        33.64153         1.79045
C         47.67171        35.82642         1.83908
C         46.47845        35.10052         1.78651
C         47.68919        37.24156         1.58945
C         46.46867        37.94685         1.43619
C         47.73324        40.00388         0.63078
C         46.46003        39.36044         1.11323
C         47.72544        41.51479         0.73927
C         46.53225        42.20976         0.72401
C         47.84262        44.41777         0.47507
C         46.52913        43.68877         0.69278
C         47.85418        45.76018        -0.12937
C         46.62172        46.42709        -0.30108
C         47.86551        48.43275        -1.01847
C         46.62134        47.77258        -0.78051
C         47.86688        49.79044        -1.47265
C         46.64509        50.46830        -1.70164
C         47.88352        52.49773        -2.40715
C         46.65143        51.81244        -2.20667
C         47.85857        53.77051        -3.00682
C         46.65631        54.35351        -3.40338
C         50.07252        21.02727        -3.19416
C         48.83256        21.61582        -2.72660
C         50.11673        23.91162        -2.70371
C         48.77116        23.11113        -2.72123
C         50.20379        25.24330        -2.04041
C         49.11835        26.13354        -2.04621
C         50.16366        27.70092        -0.58164
C         48.94188        27.19767        -1.11868
C         50.17311        28.98900         0.02706
C         48.93881        29.56306         0.41734
C         50.23512        31.69785         1.02492
C         49.02447        30.83945         1.18602
C         50.24045        33.02259         1.45204
C         49.02258        33.59084         2.19833
C         50.22777        35.86607         2.03033
C         48.94542        35.12015         2.17203
C         50.17092        37.30600         1.74359
C         48.96141        37.96303         1.54817
C         50.13706        40.09879         1.21769
C         48.96580        39.37364         1.22404
C         50.19083        41.47404         0.78532
C         48.98826        42.20686         0.62135
C         50.26293        44.19847        -0.02260
C         49.05165        43.60326         0.36977
C         50.40704        45.60900        -0.57089
C         49.08954        46.37761        -0.48336
C         50.41812        48.38421        -1.15550
C         49.09139        47.71988        -0.85911
C         50.31995        49.88466        -1.17670
C         49.11439        50.50734        -1.58412
C         50.34180        52.58320        -1.92436
C         49.12083        51.87254        -1.97804
C         51.24804        21.70433        -3.25513
C         52.63856        23.58716        -2.12340
C         51.38958        23.11025        -2.83305
C         52.53556        24.79600        -1.24627
C         51.34720        25.65302        -1.30047
C         52.63446        27.57578        -0.39913
C         51.37224        26.94443        -0.71620
C         52.64468        29.00934        -0.09732
C         51.42179        29.68452         0.19709
C         52.67400        31.77391         0.63832
C         51.44509        31.05433         0.59465
C         52.70105        33.13700         1.04328
C         51.47425        33.77970         1.42425
C         52.71839        35.89407         1.69605
C         51.49929        35.15995         1.73198
C         52.73762        37.31791         1.90364
C         51.43373        38.01980         1.97235
C         52.66464        40.20738         1.49426
C         51.39054        39.51431         1.68896
C         52.68867        41.56447         1.09164
C         51.43693        42.12041         0.60230
C         53.12103        44.56280         0.41424
C         51.38285        43.37045        -0.04346
C         52.80329        45.93988         0.58083
C         51.60316        46.46406        -0.03664
C         52.57260        48.70133         0.22034
C         51.53531        47.83382        -0.27331
C         52.55075        50.08935        -0.13921
C         51.47065        50.65166        -0.95517
C         51.47034        52.00833        -1.36823
C         55.01624        23.34166        -1.51516
C         53.84836        22.75707        -1.88145
C         55.13155        24.77293        -1.26341
C         53.87042        25.44688        -0.85388
C         55.06033        27.64379        -0.81742
C         53.82358        26.88259        -0.59107
C         55.12614        29.01033        -0.24138
C         53.84908        29.72929        -0.06137
C         55.10575        31.85291         0.19379
C         53.89170        31.11899         0.25686
C         55.16657        33.19507         0.64308
C         53.94845        33.84544         1.10444
C         55.20944        35.93828         1.69544
C         53.95042        35.20693         1.48359
C         55.22494        37.40451         1.87720
C         53.93333        38.06873         2.00054
C         54.83490        40.39335         2.40007
C         53.80677        39.52885         1.99676
C         54.92353        41.72582         2.01981
C         53.85223        42.36997         1.35259
C         54.84819        44.60650         2.11089
C         53.92865        43.81989         1.25423
C         54.80740        46.10236         2.03654
C         53.74913        46.75543         1.32940
C         54.25174        49.20554         1.87425
C         53.54787        48.20397         1.16046
C         54.24553        50.55386         1.51581
C         53.44540        50.98322         0.46422
C         57.59832        24.87286        -1.68080
C         56.32322        25.47616        -1.36815
C         57.59390        27.70888        -1.18806
C         56.31342        26.95843        -1.25278
C         57.60582        29.09261        -0.93005
C         56.39685        29.76383        -0.38289
C         57.59154        31.95213        -0.38549
C         56.27196        31.25674        -0.56362
C         57.58581        33.31924         0.00153
C         56.39395        33.91514         0.55072
C         57.67387        36.07790         0.83172
C         56.51967        35.23198         1.18067
C         57.66938        37.45339         1.17148
C         56.50046        38.04409         1.80200
C         57.68399        40.25187         1.76990
C         56.71262        39.38528         2.24579
C         57.55569        41.73180         1.85898
C         56.23217        42.43469         2.00778
C         57.42743        44.54250         2.76155
C         56.13566        43.84556         2.49100
C         57.31147        46.02601         2.95763
C         55.96915        46.75854         2.72899
C         57.29405        48.87121         3.08825
C         56.11063        48.22205         2.86935
C         58.74586        25.60714        -1.77807
C         59.97359        27.78802        -1.65452
C         58.78404        27.03678        -1.54297
C         59.97374        29.16075        -1.43166
C         58.79768        29.84393        -1.04719
C         59.98805        32.03144        -0.72185
C         58.78637        31.28435        -0.72810
C         59.98612        33.38764        -0.43641
C         58.80267        34.06186        -0.07214
C         59.91954        36.30074        -0.08032
C         58.80067        35.48702         0.21297
C         59.92475        37.64541         0.24366
C         58.82056        38.26035         0.87321
C         59.95805        40.53032         0.99454
C         58.84778        39.69094         1.15481
C         59.95343        41.87632         1.46507
C         58.81886        42.49355         1.95101
C         59.91723        44.79995         2.31568
C         58.76155        43.88542         2.47500
C         59.81149        46.12858         2.54914
C         58.56957        46.80614         2.87540
C         58.53847        48.17549         2.99214
O         34.91863        46.37126         1.87179
O         56.13901        35.25001         2.58909
O         45.39468        23.16742        -3.05638
O         49.31930        23.77903        -3.90208
O         45.00958        29.15168        -1.13168
O         55.07710        44.03920         3.45344
O         42.86151        27.35191         1.57441
O         46.30472        21.02682        -0.31136
O         56.38997        46.25302         4.06190
O         55.41554        27.60200        -2.25637
O         46.53619        29.47582         2.24764
O         34.74583        39.84829         2.09226
O         52.53322        43.87997        -0.66737
O         58.19004        43.91194         3.84428
O         48.65535        30.78591         2.60458
O         56.80173        42.31601         0.65098
O         43.53509        40.14364         2.77264
O         51.31593        38.98992         3.06359
O         26.75049        30.07237         2.13807
O         48.12364        25.93588        -2.99867
O         56.02591        29.20801         0.91851
O         39.60993        20.93247        -2.59119
O         39.99319        35.57075        -0.58581
O         25.46264        36.56771        -1.26860
O         28.69477        46.44471         1.88335
O         55.84340        39.88609         3.21857
O         49.61914        35.64394         3.37778
O         53.08402        24.62359         0.08326
O         52.42389        23.87788        -3.54613
O         26.46347        47.75341         1.57338
O         30.50076        40.94083        -1.17191
O         47.22290        44.34665         1.80836
O         38.46269        32.98984        -0.55740
O         29.31332        29.92527        -1.30674
O         44.13774        29.57922         2.54738
O         35.95653        37.69289        -0.86144
O         34.96669        48.92738         1.35293
O         42.92888        19.57767         0.14746
O         27.43551        28.13568        -1.04547
O         54.93800        48.94152         3.05851
O         31.53301        35.41851         2.81329
H         31.56870        36.38222         3.00139
O         30.12338        24.46695        -1.83099
H         29.86666        25.37270        -2.11132
O         41.06057        39.58401         3.08808
H         41.90422        39.55433         3.60013
O         55.92716        31.41585        -1.98770
H         55.93561        32.37425        -2.19393
O         41.88640        52.58020        -0.16518
H         41.11674        52.25954         0.35197
O         37.63440        31.84995         2.79620
H         37.60850        30.98414         3.25516
O         23.55500        29.38053        -0.74867
H         23.59553        28.43151        -0.99560
O         50.78832        48.05680        -2.53430
H         50.75371        47.06760        -2.61565
O         43.28855        27.48755        -2.15232
H         43.70758        28.35679        -2.34663
O         42.34240        35.80733         3.38338
H         42.81782        35.02742         3.77746
O         50.66220        45.41734        -2.00429
H         51.49349        44.88998        -2.06561
O         34.04556        26.92588        -1.78385
H         33.21926        26.54496        -2.15227
O         47.81462        39.70845        -0.81767
H         47.00943        40.07964        -1.23752
O         43.99008        53.83027        -5.03140
H         43.14848        54.19039        -5.38366
O         30.17351        33.04584         2.85648
H         30.51539        33.92167         3.17395
O         42.42622        31.34617         3.44761
H         42.78252        30.45751         3.69216
O         41.60383        43.15913        -1.61694
H         41.58028        43.99215        -2.13487
O         31.55558        30.67055         2.62707
H         31.15480        31.48846         3.02458
O         49.21488        33.17731         3.57471
H         49.59095        33.95407         4.05543
O         43.92283        33.60204         3.62475
H         43.48434        32.74415         3.87382
H         22.17810        26.88773         2.10459
H         22.06338        29.32307         1.80337
H         21.92410        31.19267         0.76720
H         21.92258        33.63779         0.62151
H         21.95806        35.54998         0.34568
H         21.99628        37.95437         0.14198
H         22.02063        39.85784         0.10115
H         22.06428        42.28819         0.03804
H         22.12834        44.11394        -0.45815
H         22.19487        46.56178        -0.69273
H         25.38305        23.45423         1.22718
H         23.32099        24.71343         1.68734
H         25.56878        49.87399        -0.78631
H         23.48080        48.61856        -0.91620
H         27.05826        22.52526         0.91174
H         27.18902        50.85707        -0.37725
H         29.17069        21.33790         0.69005
H         29.30520        51.97198        -0.81130
H         32.83951        19.14911        -0.35422
H         30.72821        20.33033        -0.05309
H         32.99769        53.78451        -2.04747
H         30.90194        52.71151        -1.49517
H         34.51763        18.23374        -0.71246
H         34.60949        54.62745        -2.46994
H         36.62570        17.11532        -1.14985
H         36.69739        55.70016        -3.05785
H         40.44505        15.15713        -2.13629
H         38.28342        16.26087        -1.75067
H         40.50944        57.64214        -3.94644
H         38.35102        56.56814        -3.46055
H         42.93400        15.26380        -2.33687
H         42.97943        57.61992        -3.90442
H         45.01599        16.52809        -2.34850
H         45.06456        56.35245        -3.99263
H         48.64957        18.84146        -2.63505
H         46.69576        17.54472        -2.18897
H         48.79600        54.30643        -3.20712
H         46.69300        55.32115        -3.92130
H         50.06977        19.96504        -3.47730
H         50.38814        53.62884        -2.25702
H         52.15273        21.19271        -3.61269
H         52.38064        52.61649        -1.28245
H         55.92244        22.72132        -1.44862
H         53.81851        21.68310        -2.11529
H         54.85141        51.26407         2.09209
H         53.44570        52.04680         0.19710
H         57.64368        23.78744        -1.84809
H         57.28522        49.95092         3.28337
H         59.69085        25.10309        -2.02896
H         60.90776        27.28114        -1.93596
H         60.91931        29.70772        -1.54546
H         60.94299        31.54713        -0.96357
H         60.93968        33.93111        -0.46670
H         60.79882        35.87219        -0.57847
H         60.80872        38.24645        -0.00826
H         60.89931        40.13714         0.58725
H         60.90516        42.42632         1.43244
H         60.89092        44.37499         2.03527
H         60.70556        46.76331         2.45291
H         59.47588        48.74936         2.97933
