         429
 CSIRO Nanostructure Databank - Neutral Graphene Oxide Data Set
C          1.23819         3.38490         0.51812
C          0.04341         4.08082         0.66129
C          1.17535         6.18917         0.12253
C          0.00471         5.46271         0.48140
C          1.15918         7.62368        -0.01165
C         -0.03951         8.37241         0.04631
C          1.10841        10.49408        -0.51695
C         -0.07933         9.74348        -0.08714
C          1.14756        11.97411        -0.48309
C         -0.05966        12.67339        -0.45424
C          1.12724        14.78268        -0.33991
C         -0.07171        14.06303        -0.38991
C          1.06076        16.25378        -0.17744
C         -0.14163        17.00158        -0.55735
C          1.11044        19.10788        -0.67552
C         -0.11822        18.35485        -0.68844
C          1.06654        20.59638        -1.02081
C         -0.12655        21.34636        -0.45907
C          1.14081        23.46524        -0.54012
C         -0.07313        22.68013        -0.27280
C          1.12845        24.92939        -0.46688
C         -0.07220        25.63496        -0.24212
C          1.13572        27.73848        -0.02983
C         -0.06496        27.00995        -0.04792
C          1.09855        29.22185         0.06819
C         -0.02350        29.91985         0.70169
C          1.25357        32.02032         0.88797
C          0.03817        31.24718         0.99618
C          1.28455        33.42416         1.25044
C          0.10744        34.15870         1.53655
C          1.38618        36.19520         1.93783
C          0.15570        35.50369         1.87138
C          1.45176        37.58830         2.28146
C          3.65621         3.36418         0.07434
C          2.43064         4.07268         0.15764
C          3.58887         6.15143        -0.69468
C          2.38653         5.47861        -0.07360
C          3.68530         7.63672        -0.40362
C          2.46613         8.37252         0.09983
C          3.67577        10.54212        -0.49168
C          2.41232         9.76353        -0.49671
C          3.64707        11.96860        -0.53618
C          2.39112        12.67789        -0.47346
C          3.63055        14.84889        -0.39915
C          2.37667        14.10707        -0.39178
C          3.63780        16.25973        -0.40786
C          2.38281        17.02307        -0.21678
C          3.59699        19.11267        -0.90780
C          2.31714        18.44264        -0.58946
C          3.60217        20.60940        -0.95319
C          2.33578        21.28297        -0.47233
C          3.58816        23.46050        -0.97999
C          2.31492        22.77611        -0.71965
C          3.60064        24.98480        -0.85817
C          2.34200        25.66574        -0.50118
C          3.64653        27.76576        -0.14603
C          2.36398        27.06235        -0.24037
C          3.68147        29.19894         0.04861
C          2.42607        29.97872         0.04626
C          3.70857        32.03100         0.65081
C          2.44906        31.36289         0.55716
C          3.75190        33.41183         1.01391
C          2.53728        34.10525         1.30207
C          3.84273        36.17122         1.70464
C          2.58917        35.49045         1.64976
C          3.88385        37.56968         2.03918
C          2.64806        38.24833         2.32887
C          6.11732         3.33719        -0.04361
C          4.89634         4.05202        -0.07521
C          6.11525         6.14358        -0.66990
C          4.87571         5.45194        -0.34489
C          6.12226         7.65846        -0.91356
C          4.84051         8.36420        -0.62631
C          6.10553        10.53434        -1.01950
C          4.86340         9.81252        -0.56205
C          6.12025        12.01593        -0.69420
C          4.89321        12.70037        -0.56173
C          6.11090        14.84836        -0.44671
C          4.87738        14.13804        -0.46969
C          6.10693        16.28225        -0.43299
C          4.86755        16.98503        -0.50512
C          6.06875        19.13749        -0.58719
C          4.86839        18.40448        -0.66688
C          6.08040        20.59835        -0.64444
C          4.87905        21.32750        -0.76568
C          6.06942        23.46844        -0.67455
C          4.85971        22.73735        -0.77778
C          6.06824        24.90800        -0.53009
C          4.88251        25.63745        -0.52640
C          6.13033        27.70924         0.06204
C          4.84417        27.03608        -0.19142
C          6.16365        29.19462         0.22321
C          4.87612        29.90669         0.18345
C          6.17363        32.00486         0.43245
C          4.91248        31.32468         0.39144
C          6.20914        33.39088         0.76714
C          5.00141        34.08747         1.07499
C          6.30000        36.16067         1.46213
C          5.04647        35.47527         1.42283
C          6.32655        37.57018         1.76586
C          5.10751        38.24120         2.06203
C          8.67462         3.36116        -0.02603
C          7.38451         4.03533         0.10614
C          8.65735         6.23027        -0.47330
C          7.38471         5.55140        -0.19437
C          8.61784         7.67426        -0.69112
C          7.41469         8.35643        -0.76414
C          8.63569        10.55431        -1.11966
C          7.38982         9.85705        -0.53681
C          8.62151        12.03295        -0.74916
C          7.37321        12.71714        -0.65572
C          8.59330        14.87062        -0.46575
C          7.35905        14.14581        -0.49211
C          8.59246        16.31438        -0.28580
C          7.32670        17.01983        -0.32523
C          8.47982        19.20772         0.01033
C          7.28120        18.43376        -0.33838
C          8.55159        20.63586        -0.33425
C          7.30685        21.32880        -0.58923
C          8.55538        23.47224        -0.79898
C          7.28855        22.73996        -0.64311
C          8.60274        24.90515        -0.57159
C          7.35948        25.56676        -0.07783
C          8.56468        27.75561        -0.52859
C          7.38241        27.04160        -0.30203
C          8.53301        29.21859        -0.55173
C          7.40225        29.91166        -0.15173
C          8.59690        32.06342        -0.00700
C          7.38155        31.34711         0.04596
C          8.64495        33.38951         0.45300
C          7.46323        34.06828         0.83206
C          8.74424        36.18075         1.16451
C          7.50271        35.46982         1.18117
C          8.75927        37.59536         1.43026
C          7.55169        38.25922         1.74285
C         11.15845         3.31192        -0.24424
C          9.83916         4.06978        -0.13914
C         11.12115         6.22750        -0.35602
C          9.82964         5.51456        -0.27475
C         11.11170         7.70968        -0.27980
C          9.87419         8.43856        -0.58331
C         11.06640        10.61463        -0.25075
C          9.86717         9.80818        -0.66094
C         11.09805        12.03681        -0.76875
C          9.85534        12.75072        -0.71254
C         11.05655        14.97268        -0.74625
C          9.81436        14.18741        -0.63418
C         11.07106        16.38423        -0.32358
C          9.80130        17.01521        -0.13058
C         11.05141        19.21746         0.12117
C          9.79924        18.44935         0.18871
C         10.99377        20.60787         0.05183
C          9.77498        21.29384        -0.27548
C         11.09430        23.50589        -0.42624
C          9.87427        22.71134        -0.66880
C         11.07779        24.89961        -0.61198
C          9.80572        25.61501        -0.65663
C         11.06175        27.69262        -1.19526
C          9.79773        27.04503        -0.67980
C         11.06143        29.22717        -1.15920
C          9.75195        29.96738        -0.96940
C         11.06222        32.19570        -0.78870
C          9.68205        31.50245        -0.90912
C         11.12149        33.52304        -0.10278
C          9.98008        34.00925         0.76447
C         11.17316        36.21356         0.82715
C          9.95884        35.51298         0.87288
C         11.18405        37.62702         1.07651
C          9.99190        38.29179         1.37879
C         13.62913         3.39513         0.44134
C         12.28616         4.07572         0.46931
C         13.63589         6.22822         0.22620
C         12.38392         5.48709        -0.06540
C         13.48139         7.68364         0.58671
C         12.26941         8.37331        -0.00175
C         13.65173        10.53157        -0.22031
C         12.34607         9.81690        -0.34530
C         13.70241        12.01854        -0.42843
C         12.37459        12.74298        -0.83915
C         13.59118        14.93806        -0.31942
C         12.38804        14.23947        -0.78662
C         13.55725        16.35778        -0.23438
C         12.28796        17.07177        -0.22078
C         13.50727        19.20296         0.13871
C         12.31043        18.50732         0.05019
C         13.51807        20.64255         0.41942
C         12.20704        21.40582         0.29415
C         13.52471        23.51551        -0.07338
C         12.29062        22.83468        -0.06804
C         13.54080        24.92378        -0.33294
C         12.31328        25.62762        -0.52588
C         13.52565        27.75783        -0.69488
C         12.32276        27.04314        -0.67937
C         13.52887        29.22762        -0.80956
C         12.35071        29.94214        -0.95826
C         13.60614        32.08423        -0.45924
C         12.38282        31.45975        -1.13481
C         13.62274        33.45904        -0.05520
C         12.42291        34.16825         0.19163
C         13.65418        36.25619         0.58050
C         12.42454        35.52939         0.55677
C         13.61529        37.69129         0.71804
C         12.42720        38.33477         0.97378
C         16.03466         3.30033         0.67010
C         14.82566         4.06787         0.37130
C         16.06573         6.35446         0.44702
C         14.83066         5.55908         0.29774
C         16.00069         7.78206         0.79161
C         14.75638         8.48091         0.55600
C         15.84959        10.65066         1.12577
C         14.77104         9.84709         0.44701
C         15.93349        12.10007         0.69995
C         14.79804        12.78475         0.14097
C         15.92371        14.95333         0.42997
C         14.77003        14.22528         0.06838
C         15.96432        16.36696         0.28485
C         14.76869        17.06145        -0.02800
C         16.02127        19.21153         0.35961
C         14.81005        18.54595        -0.24323
C         15.98959        20.65485         0.54843
C         14.76503        21.41268         0.26991
C         16.03935        23.50566        -0.02950
C         14.77569        22.79038         0.11264
C         16.03623        24.90095        -0.37828
C         14.77751        25.63241        -0.46836
C         15.99421        27.75181        -1.00467
C         14.75344        27.02994        -0.66014
C         16.03655        29.22266        -0.80084
C         14.80544        29.92174        -0.70546
C         16.07393        31.97804        -0.26228
C         14.82176        31.34109        -0.49914
C         16.09639        33.37502         0.16663
C         14.85110        34.15127         0.19924
C         16.16793        36.27952         0.44333
C         14.87631        35.53552         0.44249
C         16.13813        37.80363         0.36958
C         14.83415        38.56469         0.49488
C         18.56402         3.40424         0.88329
C         17.30066         3.71140         0.30321
C         18.59505         6.57463         0.17500
C         17.27274         5.89769        -0.00026
C         18.43894         7.75667         1.11156
C         17.16408         8.50019         1.00233
C         18.32142        10.60509         1.53037
C         17.18857         9.93321         1.15932
C         18.21246        12.09731         1.80492
C         17.07221        12.77867         1.06331
C         18.40863        14.85719         0.75980
C         17.06608        14.27543         1.13152
C         18.45588        16.33847         0.55532
C         17.19196        17.08654         0.49109
C         18.51009        19.21716         0.54064
C         17.22062        18.50859         0.52926
C         18.54648        20.62108         0.34134
C         17.31763        21.41250         0.50662
C         18.51069        23.47432        -0.15311
C         17.26638        22.82058         0.07948
C         18.50632        24.87883        -0.40590
C         17.26307        25.56007        -0.57019
C         18.55378        27.72115        -0.88606
C         17.29609        26.97427        -0.99216
C         18.53697        29.18619        -1.26072
C         17.27412        29.89398        -0.77676
C         18.52087        32.04246        -0.60235
C         17.30523        31.29561        -0.48074
C         18.53239        33.44828        -0.63512
C         17.41391        34.16644        -0.03585
C         18.40595        36.31996        -0.70607
C         17.34946        35.61992        -0.14096
C         18.34182        37.77148        -0.80555
C         17.23163        38.46123        -0.34045
C         19.66018         4.29028         0.91149
C         20.92846         6.40605         0.95795
C         19.71550         5.67222         0.66951
C         20.93360         7.72991         1.30610
C         19.66257         8.42045         1.64031
C         20.78775        10.69755         1.97380
C         19.53495         9.87970         2.13432
C         20.76226        12.03634         1.81068
C         19.54870        12.81331         1.60770
C         20.87342        14.84949         0.93932
C         19.62771        14.12470         1.18881
C         20.92008        16.19277         0.78524
C         19.70267        17.05251         1.03349
C         20.93143        19.17636         0.31843
C         19.73312        18.49458         0.56125
C         20.94823        20.54466         0.05064
C         19.76119        21.29976         0.08710
C         20.93977        23.47040        -0.25597
C         19.74907        22.75332        -0.10328
C         20.93920        24.85925        -0.41734
C         19.74610        25.58462        -0.48555
C         20.94983        27.77798        -0.46455
C         19.74689        27.04291        -0.61982
C         20.93404        29.18156        -0.50544
C         19.80026        29.88825        -0.84126
C         20.67390        32.06495        -1.82407
C         19.86155        31.38104        -0.74125
C         20.58803        33.40969        -1.96880
C         19.58403        34.17913        -1.25724
C         20.56722        36.37071        -1.87711
C         19.54253        35.61447        -1.28366
C         20.49974        37.77607        -1.95250
C         19.41600        38.46713        -1.45052
O         13.22009         9.91261        -1.49942
O          3.57779        24.32483        -2.16593
O         16.57750        27.26993        -2.27264
O          1.70559        16.71963         1.05228
O         16.47734        37.10955         1.61899
O          6.26091        28.32858         1.42530
O         13.37652        12.33251        -1.81837
O         10.94527        33.45896        -1.55018
O          1.60173        29.84245        -1.16366
O          9.30295        23.00529        -1.98184
O          8.98257        18.84295         1.34118
O         11.79901        14.79824        -2.00889
O         18.83802         7.50431         2.49252
O         11.96307         5.67158        -1.46086
O         17.00985        33.65336         1.27336
O         12.77514        21.08207         1.60954
O         17.34733         4.69802        -0.70940
O         16.65393        21.13281         1.77739
O          7.30789         5.06934         1.17527
O         15.49681        10.75099         2.51584
O          6.11996         6.71313        -2.03939
O         18.56741        15.41136        -0.58430
O          1.70560         9.89634        -1.75785
O         10.26134        29.66001        -2.32418
O          3.53450        19.86096        -2.20638
O         16.86593        14.61535         2.54754
H         17.19086        13.84059         3.08774
O         13.16216         7.62534         2.04159
H         13.46698         8.46711         2.44912
O         19.29859         9.81450         3.56035
H         18.70024         9.04549         3.70907
O          2.36050        21.09843         0.97148
H          1.52519        21.46392         1.33465
O         19.53104        17.13565         2.48495
H         20.29293        17.62776         2.85566
O         20.60067        31.65557         0.50221
H         20.58598        32.62750         0.63828
O          7.38320        25.39296         1.40526
H          6.95379        26.18472         1.80156
O         11.03695         2.01496         0.33258
H         11.02062         2.14233         1.30571
O         19.00203         7.10757        -1.12034
H         18.90615         6.38443        -1.77641
O         11.88463         4.14319         1.87074
H         12.53294         4.70682         2.34517
O          3.42128         6.00830        -2.15346
H          4.27364         6.30335        -2.55798
O         11.08335        27.30704        -2.61066
H         10.55421        27.98518        -3.09365
O          8.67894        10.47406        -2.56100
H          7.76907        10.62967        -2.91119
O         10.90514        10.78968         1.21857
H         10.05254        11.25346         1.37132
O         17.78560        12.20311         3.20809
H         16.94950        11.64229         3.24662
O          6.05863        10.42834        -2.48490
H          5.19570        10.78634        -2.78495
O         14.96382        39.51528         1.56202
H         15.35759        39.03760         2.32343
O          7.41366        10.05394         0.90202
H          8.17063         9.54769         1.26746
O         18.49151        29.23014        -2.73566
H         17.76431        28.61342        -3.00203
O          0.99802        20.72972        -2.45418
H          1.83379        20.35054        -2.82054
O         14.96047        18.76290        -1.70691
H         14.36680        18.12603        -2.16096
O          2.65706         8.58969         1.54384
H          2.75744         7.71261         1.97076
O          9.14674        31.88773        -2.20475
H          9.68342        31.42023        -2.88490
O         10.32811        33.50497         2.10297
H          9.68585        33.88119         2.74158
O         12.59469        31.68309        -2.56142
H         12.24989        32.58688        -2.75178
H          1.27450         2.29906         0.68432
H         -0.87509         3.54387         0.93639
H         -0.94558         5.98933         0.63765
H         -0.99197         7.84889         0.21317
H         -1.03551        10.26396         0.05908
H         -1.01555        12.13514        -0.48400
H         -1.03671        14.58295        -0.34535
H         -1.07465        16.46125        -0.76754
H         -1.04743        18.88057        -0.94906
H         -1.07018        20.81235        -0.27375
H         -0.97017        23.20209         0.08965
H         -1.03563        25.10946        -0.24687
H         -1.02230        27.53290         0.08085
H         -0.92573        29.35132         0.96909
H         -0.84894        31.72267         1.43689
H         -0.87282        33.66609         1.48508
H         -0.77662        36.04623         2.08502
H          0.51498        38.12027         2.50309
H          3.66284         2.27745         0.23943
H          2.68391        39.31654         2.58802
H          6.10388         2.23829        -0.07831
H          5.13465        39.31470         2.30164
H          8.70442         2.26154        -0.05429
H          7.57081        39.33770         1.95892
H         11.42000         3.18526        -1.32555
H         10.00801        39.37313         1.57960
H         13.63701         2.30815         0.61776
H         12.42489        39.42854         1.08856
H         15.92399         2.42331         1.32653
H         14.66853        39.15481        -0.44711
H         18.67211         2.45570         1.43086
H         17.12791        39.53240        -0.57087
H         20.58311         3.86631         1.34359
H         21.88567         5.86051         0.92496
H         21.89242         8.23852         1.48318
H         21.75792        10.20006         2.12298
H         21.72296        12.57072         1.77396
H         21.81070        14.28070         0.84959
H         21.89157        16.67119         0.59133
H         21.88575        18.63171         0.32608
H         21.91300        21.02705        -0.15333
H         21.90743        22.95284        -0.22688
H         21.90688        25.36975        -0.50500
H         21.89169        27.26613        -0.23145
H         21.84637        29.73475        -0.24156
H         21.43262        31.48597        -2.36968
H         21.25515        33.92274        -2.67632
H         21.44616        35.86613        -2.29993
H         21.32450        38.32400        -2.42937
H         19.37038        39.56297        -1.52228
