         720
 CSIRO Nanostructure Databank - Neutral Graphene Oxide Data Set
C         23.15059        27.58531        -1.72868
C         23.22680        28.90481        -1.97590
C         23.22490        31.86567        -1.79237
C         23.14021        33.12311        -1.28761
C         23.05213        35.94031        -0.39647
C         23.02776        37.35758        -0.34791
C         22.84150        40.33542         0.01483
C         22.80122        41.66364         0.19468
C         22.83484        44.60749        -0.77291
C         22.74231        45.96119        -0.86083
C         25.42534        24.72533        -0.74491
C         24.28290        25.40923        -1.07895
C         25.72287        27.45108        -1.62952
C         24.36507        26.75087        -1.65522
C         25.75358        28.93264        -1.62343
C         24.51687        29.62519        -2.02586
C         25.68023        31.78669        -1.21421
C         24.50979        31.16817        -1.86351
C         25.54876        33.11501        -0.76726
C         24.31422        33.81789        -0.84255
C         25.47592        36.01764        -0.68317
C         24.23440        35.23821        -0.59066
C         25.45635        37.46840        -0.44665
C         24.17544        38.13595        -0.38523
C         25.35102        40.22084         0.34263
C         24.11690        39.66730        -0.45750
C         25.35154        41.77563         0.51615
C         24.02091        42.51301         0.36197
C         24.93067        44.83207         0.30278
C         23.93625        43.96644        -0.02632
C         25.12898        46.10809        -0.47740
C         23.81952        46.84785        -0.22181
C         25.15543        48.91702        -0.33401
C         23.96472        48.30851        -0.55510
C         27.89142        23.08562        -0.23167
C         27.87895        24.55739        -0.26466
C         26.71552        25.31973        -0.77083
C         28.09355        27.38253        -0.95815
C         26.88028        26.70911        -1.07546
C         28.21350        28.80047        -1.47934
C         26.92458        29.61722        -1.35354
C         28.08464        31.71604        -0.62313
C         26.92030        31.05194        -1.08978
C         28.04111        33.09728        -0.21435
C         26.70365        33.80039        -0.07606
C         27.92110        36.03129         0.04080
C         26.79551        35.26488        -0.48099
C         27.89416        37.41844         0.04330
C         26.66980        38.13000        -0.23020
C         27.92472        40.29180         0.12813
C         26.64292        39.64028        -0.28478
C         27.92312        41.72992        -0.01777
C         26.79172        42.39656         0.71526
C         27.75243        44.56936        -0.19953
C         26.86514        43.88196         0.55593
C         27.70945        46.07890        -0.47616
C         26.41645        46.83077        -0.16210
C         27.69134        48.95804         0.16058
C         26.41193        48.19535        -0.07796
C         27.88418        50.31648        -0.33822
C         30.34373        22.99565         0.01407
C         29.04319        22.37608        -0.09105
C         30.43871        24.40255        -0.11653
C         29.21839        25.23423        -0.26781
C         30.51617        27.36278        -0.20762
C         29.38122        26.59693        -0.92643
C         30.78867        28.78704        -0.73366
C         29.47897        29.56250        -1.02434
C         30.63318        31.68151        -0.11958
C         29.40136        31.01501        -0.68052
C         30.49496        33.12316         0.23987
C         29.16368        33.79976         0.19266
C         30.33407        36.01808         0.88528
C         29.07528        35.25761         0.55301
C         30.41732        37.53869         0.83412
C         29.00958        38.19056         0.74823
C         30.34784        40.27969        -0.05926
C         29.09871        39.60966         0.24698
C         30.31314        41.65306        -0.75164
C         29.02882        42.39158        -0.45159
C         30.29242        44.59354        -0.28662
C         28.99618        43.84958        -0.59885
C         30.00405        45.87500         0.39443
C         28.92014        46.67995         0.20098
C         30.27660        48.82460        -0.02213
C         29.00727        48.16099         0.38608
C         30.35356        50.20679        -0.21191
C         29.11470        50.92090        -0.36476
C         32.78534        20.11857         0.39104
C         31.59013        20.80167         0.17838
C         32.78118        22.90539         0.38887
C         31.54809        22.21802         0.18243
C         32.80158        24.32990         0.43063
C         31.65446        25.07829         0.08336
C         32.84976        27.25209         0.60548
C         31.83416        26.54783        -0.27330
C         32.89634        28.69977         0.68243
C         31.82946        29.46635         0.19374
C         32.88391        31.58907         0.94730
C         31.82727        30.90927         0.36237
C         32.85425        33.04638         1.23279
C         31.52612        33.80270         1.12078
C         32.93782        36.00822         0.57086
C         31.59980        35.24842         0.49228
C         32.78999        37.47746         0.29598
C         31.45716        38.04742        -0.19233
C         32.72984        40.25713        -0.73372
C         31.50686        39.57171        -0.16196
C         32.76538        41.75004        -0.55575
C         31.58698        42.46806        -0.43804
C         32.88501        44.58895        -0.25058
C         31.61480        43.89081        -0.26036
C         32.97423        46.02369        -0.24862
C         31.84258        46.83651         0.13392
C         33.19764        48.99540        -0.77026
C         31.38816        47.99071        -0.44489
C         32.99701        50.28314        -0.26690
C         31.66717        50.99339        -0.55913
C         32.67602        52.90865         0.77269
C         31.65516        52.36101         0.09236
C         35.26727        18.53683         1.31359
C         35.26967        20.01824         0.99284
C         34.01259        20.78164         0.57469
C         35.21351        23.04403         0.64467
C         34.01743        22.21245         0.53674
C         35.20215        24.39412         1.08859
C         33.93957        25.03123         0.95000
C         35.59724        27.40782         1.72563
C         33.70769        26.40695         1.27736
C         35.49782        28.78387         1.39879
C         34.23504        29.45534         0.84923
C         35.43540        31.63124         1.24821
C         34.11586        30.85476         1.46409
C         35.42883        33.01485         1.20379
C         34.16875        33.79769         1.30925
C         35.58452        35.91862         0.97621
C         34.22654        35.26885         0.92280
C         35.71928        37.34469         0.84206
C         33.78485        38.37805         0.52597
C         35.23957        40.17226        -0.36177
C         33.98985        39.63371        -0.16599
C         35.32880        41.60650        -0.78988
C         34.04064        42.44528        -0.95794
C         35.36169        44.52129        -0.31046
C         34.11725        43.86324        -0.41943
C         35.40837        45.94973        -0.20933
C         34.21588        46.70270        -0.39623
C         35.41856        48.79784         0.13046
C         34.27241        48.14991        -0.38854
C         35.33057        50.18510         0.49343
C         34.09082        50.87329         0.41467
C         35.28502        52.98194         1.32960
C         33.95509        52.20884         1.01536
C         35.34617        54.43645         1.48694
C         37.69549        18.34951         0.72363
C         36.42118        17.83298         1.31281
C         37.67445        19.78021         0.32580
C         36.44464        20.29799         0.08908
C         37.69008        22.98788         0.41326
C         36.43720        22.50868         0.16204
C         37.81601        24.37800         0.92381
C         36.52621        25.09933         1.33558
C         38.03005        27.23004         1.43099
C         36.65494        26.58578         1.38376
C         37.97408        28.76131         1.33725
C         36.71475        29.49640         1.34503
C         37.95553        31.61692         1.55780
C         36.68586        30.91170         1.28439
C         37.99925        33.09863         1.38170
C         36.69657        33.77669         1.21729
C         37.95974        35.81458         0.38540
C         36.72517        35.17285         0.75647
C         37.87828        37.14830        -0.31673
C         36.65342        37.95052         0.06624
C         37.81111        40.08419        -0.06840
C         36.54371        39.35761        -0.49875
C         37.83048        41.56601        -0.05677
C         36.62280        42.33287        -0.51571
C         37.81652        44.43400         0.06512
C         36.62209        43.79818        -0.25571
C         37.85481        45.87577         0.30335
C         36.61854        46.62646         0.13708
C         37.77227        48.69770         0.88237
C         36.59126        48.01138         0.35056
C         37.80647        50.16256         0.59868
C         36.54116        50.92081         0.77818
C         37.78026        53.08519         0.87950
C         36.53787        52.28342         1.00318
C         37.79853        54.48741         1.33500
C         36.56456        55.10958         1.56450
C         40.43251        15.81742         1.55757
C         39.21039        16.33761         1.32931
C         40.28687        18.38359         0.12772
C         39.01952        17.62663         0.62637
C         40.23359        19.89558         0.38868
C         38.91370        20.60468         0.41297
C         40.16845        22.85018        -0.00503
C         38.90653        22.13538         0.37015
C         40.05882        24.28764        -0.43402
C         38.92666        25.14866         0.20227
C         40.13757        27.40365         0.13480
C         39.03739        26.61163         0.46818
C         40.38198        28.68312         0.87920
C         39.17341        29.42765         1.28319
C         40.60114        31.66181         1.55132
C         39.26791        30.87014         1.59953
C         40.50172        32.98668         0.76832
C         39.19933        33.71669         0.72973
C         40.43532        35.85272         0.15491
C         39.18795        35.16460         0.42081
C         40.42179        37.24284        -0.10002
C         39.15183        37.96446        -0.14868
C         40.31276        40.09657        -0.65975
C         39.09780        39.32971        -0.20641
C         40.31668        41.55992        -0.28181
C         39.13270        42.26930        -0.14336
C         40.28310        44.38778         0.17489
C         39.09149        43.70644         0.06102
C         40.34424        45.78633         0.74489
C         39.03784        46.52353         0.62595
C         40.38498        48.68731         1.28175
C         39.05817        47.93621         1.05582
C         40.37002        50.14814         0.87287
C         39.11761        50.86604         0.58235
C         40.37244        53.03276         0.95402
C         39.08823        52.35994         0.67698
C         40.36577        54.47167         1.07778
C         39.13842        55.11056         1.71089
C         40.26877        57.31729         1.31516
C         39.18690        56.61764         1.67667
C         42.90792        15.97987         1.54945
C         41.65405        16.54219         1.23828
C         42.77933        18.59561         0.53786
C         41.59451        17.83592         0.68723
C         42.69167        20.01248         0.18050
C         41.48901        20.65983         0.11204
C         42.64856        22.89035        -0.62746
C         41.40966        22.08296        -0.35236
C         42.57775        24.38445        -0.83449
C         41.30674        24.88085        -0.97923
C         42.27894        27.84166        -1.05024
C         41.10029        27.12162        -0.86063
C         42.66972        28.93061        -0.28346
C         41.66075        29.45443         0.66087
C         42.93392        31.55340         0.68989
C         41.75087        30.89606         0.93996
C         43.00262        33.04391         0.87120
C         41.74044        33.77530         0.60416
C         42.93647        35.89312         0.13036
C         41.70990        35.15286         0.29974
C         42.91544        37.28054        -0.15821
C         41.65239        37.98155        -0.21134
C         42.81997        40.12742        -0.54879
C         41.62487        39.38845        -0.39528
C         42.79525        41.58244        -0.56724
C         41.57392        42.24463        -0.36262
C         42.79577        44.46839        -0.32973
C         41.51478        43.70901        -0.27169
C         42.84879        45.80748         0.37291
C         41.53136        46.60913         0.16831
C         42.80216        48.72109         0.69837
C         41.61488        48.00264         0.74332
C         42.82171        50.14318         0.83633
C         41.57636        50.85382         0.81674
C         42.77010        53.05577         0.49807
C         41.53844        52.31457         0.79342
C         42.78778        54.52261         0.63316
C         41.52907        55.19026         0.87460
C         42.79851        57.32104         1.11426
C         41.49198        56.68919         0.70247
C         44.07824        16.68078         1.29437
C         45.29267        18.75215         0.59109
C         44.04513        18.00184         0.80154
C         45.24690        20.11575         0.21378
C         43.94632        20.80609         0.16179
C         45.20954        22.93167        -0.57744
C         43.94109        22.25536        -0.22240
C         45.14211        24.31270        -0.85938
C         43.89640        25.01382        -1.40007
C         45.13361        27.25003        -0.82244
C         44.08114        26.53950        -1.32383
C         45.17752        28.72816        -0.64367
C         43.97682        29.51863        -0.30581
C         45.42147        31.39507         0.54594
C         44.08428        30.82076         0.19979
C         45.52136        32.89884         0.51677
C         44.30960        33.76811         0.74745
C         45.46331        36.05826         0.12679
C         44.25183        35.13455         0.02229
C         45.41468        37.36280        -0.41921
C         44.11897        38.03451        -0.46639
C         45.26151        40.18163        -1.09114
C         44.05890        39.42400        -0.66425
C         45.30069        41.65445        -0.97200
C         44.04310        42.33989        -0.68970
C         45.22476        44.54569        -0.78267
C         44.04707        43.71289        -0.48438
C         45.26142        45.96534        -0.31340
C         44.10712        46.59370         0.08153
C         45.40046        48.71504         0.64064
C         44.09408        47.97643         0.60945
C         45.38840        50.19713         0.59115
C         44.11802        50.90072         1.03676
C         45.30030        53.12083         0.48713
C         44.06897        52.31364         0.48318
C         45.27064        54.50661         0.52077
C         44.00038        55.21615         0.68152
C         43.95947        56.63598         1.01256
C         47.71300        18.94138         0.81196
C         46.55486        18.16333         0.80315
C         47.64873        20.30564         0.51568
C         46.42943        20.88356         0.10863
C         47.67259        22.93572        -0.70061
C         46.44655        22.28044        -0.34571
C         47.58409        24.31175        -0.98983
C         46.34755        25.01587        -0.83468
C         47.58601        27.19253        -0.98450
C         46.38512        26.47652        -0.44014
C         47.71540        28.63076        -0.59279
C         46.40478        29.37121        -0.57088
C         47.76822        31.42661        -0.33162
C         46.56950        30.76698        -0.18792
C         48.08375        32.73173         0.35941
C         46.77142        33.37021         0.73436
C         47.93743        36.02955        -0.12133
C         46.74289        35.57340         0.44091
C         47.89622        37.36309        -0.58950
C         46.64304        38.03718        -0.67010
C         47.82592        40.25117        -1.03311
C         46.61058        39.44529        -1.12287
C         47.79300        41.64422        -1.14174
C         46.50709        42.34251        -1.12335
C         47.76266        44.62177        -1.16900
C         46.48648        43.83029        -1.18621
C         47.77445        46.00261        -0.66146
C         46.54163        46.67250        -0.29588
C         47.85495        48.69216         0.27157
C         46.58457        47.98917         0.14468
C         47.84272        50.23510         0.34282
C         46.52426        50.90686         0.33030
C         47.81722        53.14485        -0.03883
C         46.52377        52.37955         0.14016
C         47.73503        54.58135         0.29364
C         46.54594        55.20804         0.49019
C         49.94293        20.71536         1.48522
C         48.75770        21.29873         0.76179
C         50.39739        22.83199        -0.45892
C         48.99639        22.11964        -0.55200
C         50.80471        23.98112        -1.33643
C         48.39533        25.10473        -1.97511
C         49.75181        27.29646        -2.09712
C         48.56165        26.55919        -1.68561
C         49.93316        28.62133        -1.86401
C         48.74666        29.37790        -1.41705
C         50.10311        31.55548        -1.38289
C         48.81694        30.84849        -1.18715
C         50.16139        33.00325        -1.04489
C         49.10330        33.65282        -0.40980
C         50.41262        35.92353        -0.57827
C         49.20567        35.17435         0.04069
C         50.33766        37.38012        -0.92242
C         49.14101        38.06245        -0.85596
C         50.26552        40.22884        -1.49050
C         49.13760        39.56934        -0.71161
C         50.29867        41.70711        -1.16857
C         49.05014        42.37246        -1.11830
C         50.28949        44.55835        -0.76072
C         49.07948        43.84844        -1.16466
C         50.27119        45.93928        -0.61854
C         49.01660        46.66051        -0.54161
C         50.28318        48.75825        -0.11603
C         49.08109        48.03798        -0.16214
C         50.27670        50.20041         0.03472
C         49.08864        50.92613         0.03145
C         50.28841        52.95813         0.70184
C         49.17246        52.43373        -0.17152
C         51.09643        21.38441         1.56562
C         52.37059        23.54667         1.06573
C         51.38685        22.49255         0.62003
C         52.38991        24.86957         0.37528
C         51.57031        25.07071        -0.84813
C         52.50431        27.39365        -1.03379
C         51.65742        26.32040        -1.48220
C         52.43515        28.71430        -1.49578
C         51.21619        29.33548        -2.23166
C         52.35395        31.57751        -2.31120
C         51.14321        30.84761        -1.94615
C         52.37023        33.03875        -2.15721
C         51.38627        33.70656        -1.47314
C         52.61976        35.92889        -1.89967
C         51.55455        35.16331        -1.18301
C         52.74519        37.38069        -1.67395
C         51.57653        38.08300        -1.28150
C         52.77563        40.23305        -1.35524
C         51.58014        39.51107        -1.30433
C         52.78175        41.69307        -1.21083
C         51.52418        42.37887        -1.04209
C         52.77571        44.58648        -0.81061
C         51.54599        43.77961        -0.47883
C         52.76654        45.95142        -0.61976
C         51.51029        46.67676        -0.45459
C         52.79287        48.85440        -0.50552
C         51.51935        48.05594        -0.30608
C         52.74815        50.21867         0.15122
C         51.53717        50.89489         0.26039
C         51.42525        52.23907         0.81839
C         54.64475        23.95816         1.94254
C         53.57137        23.16311         1.85019
C         54.83862        25.22232         1.14287
C         53.58408        25.74268         0.47486
C         54.65896        27.92041         0.20180
C         53.60830        26.96989        -0.14463
C         54.65722        29.19347        -0.36878
C         53.78255        29.42709        -1.59192
C         54.76290        31.80707        -1.63642
C         53.71146        30.87447        -2.06992
C         54.93382        33.13901        -2.31489
C         53.53950        33.72149        -2.82458
C         55.41974        36.21792        -2.54560
C         53.46822        35.20479        -2.67574
C         55.27628        37.50703        -1.97352
C         53.98313        38.11576        -1.77669
C         55.24500        40.21184        -1.35661
C         54.00525        39.51283        -1.46796
C         55.25364        41.68184        -1.42406
C         53.98324        42.39976        -1.24308
C         55.30131        44.60675        -0.97302
C         53.98693        43.90925        -1.40006
C         55.17967        45.81159        -0.05467
C         54.00541        46.68355        -0.40869
C         55.22745        48.69797         0.30592
C         54.02918        48.04068        -0.16899
C         55.16330        50.09734         0.58448
C         53.98924        50.81265         0.52715
C         56.47687        26.05426         2.90365
C         55.60188        26.32722         1.85035
C         56.54707        28.60640         1.66471
C         55.58492        27.62517         1.26192
C         56.59209        29.90210         1.04261
C         55.54646        30.19404         0.10751
C         57.23300        32.58252        -0.27933
C         55.35833        31.51765        -0.43674
C         57.42454        33.24091        -1.45483
C         56.27883        33.86567        -2.20323
C         57.64619        35.93804        -1.65001
C         56.45798        35.35544        -2.22607
C         57.66600        37.34460        -1.38482
C         56.46776        38.11750        -1.51210
C         57.69065        40.17965        -0.87191
C         56.46571        39.52441        -1.27113
C         57.72012        41.58581        -0.68113
C         56.60240        42.39402        -1.21419
C         57.88534        44.51418        -0.39645
C         56.60910        43.87803        -0.95545
C         57.65082        45.83931         0.29743
C         56.47081        46.55676         0.17589
C         57.61899        48.55340         1.03079
C         56.42502        47.95205         0.51517
C         57.39910        27.01216         3.32954
C         58.56493        29.15136         2.98669
C         57.49030        28.25252         2.68063
C         58.75120        30.27264         2.23388
C         57.80229        30.70758         1.24453
C         59.57296        32.09386         0.06004
C         58.20341        31.79274         0.41905
C         59.85875        32.92913        -0.97373
C         58.82961        33.67298        -1.79324
C         59.98755        35.81007        -0.99007
C         58.83677        35.17877        -1.46071
C         59.99535        37.17662        -0.69329
C         58.84732        37.96411        -0.87466
C         59.92099        40.00897         0.08515
C         58.83058        39.38502        -0.55812
C         59.87722        41.34849         0.42593
C         58.79291        42.17848         0.04432
C         59.79725        44.18964         1.12907
C         58.80615        43.58986         0.36253
C         59.84829        45.58507         1.33805
C         58.79232        46.42302         0.94364
C         58.74376        47.80940         1.28464
O         38.48464        50.39310        -0.68305
O         37.48337        24.51349         2.33042
O         24.72785        30.51561        -3.15839
O         41.45346        28.59877         1.87697
O         39.60442        20.18978         1.66802
O         30.37031        41.33447        -2.13376
O         38.41750        52.97016        -0.47206
O         34.74705        38.08753         1.49490
O         29.73096        30.57399        -2.06271
O         48.23215        30.28167        -2.43699
O         34.46808        26.86928         2.34141
O         29.46930        35.57452         1.95455
O         29.73668        44.48399        -1.66894
O         55.91153        33.12850        -3.42156
O         26.34081        35.59392        -1.80722
O         39.64172        32.89261        -0.42199
O         48.62721        24.62291        -3.07585
O         51.53193        21.89341        -0.72846
O         25.20811        26.85638        -2.86095
O         38.88181        24.67713        -1.19647
O         50.83327        26.52624        -2.59692
O         24.57190        42.18551         1.69740
O         28.43561        25.22993         0.96956
O         36.25794        41.91706        -1.88348
O         51.59376        35.56345         0.23976
O         38.15419        48.21850         2.21206
O         45.58857        44.37842        -2.20695
O         33.80655        35.39814        -0.48967
O         43.11937        27.28643        -2.03404
O         28.28225        48.74584         1.49100
O         34.47434        52.31187         2.36719
O         56.19636        44.71487        -2.10525
O         54.43553        35.83313        -3.46253
O         31.04039        32.73952        -1.06072
O         43.34443        52.49730        -0.76895
O         51.64926        24.70195         1.64883
O         55.93984        32.57400         0.26796
O         53.18219        31.03107        -3.38730
O         47.98716        49.39913         1.55245
O         41.01486        26.02630        -1.72991
O         37.65752        40.80690         1.20323
O         44.84180        48.13168         1.88725
O         46.87014        34.58341         1.39945
O         43.91560        21.88224         1.19993
O         25.87725        44.54587         1.28568
O         32.14960        48.45882        -1.54889
O         39.83497        22.66663         1.39538
O         46.99907        52.78387        -1.21081
O         37.43735        33.77515         2.54054
O         41.91777        22.21297        -1.72191
O         31.06175        46.33496         1.19827
O         43.72721        33.59834         2.06222
O         45.82612        39.67426        -2.34309
O         36.34611        21.42327        -0.71332
O         56.12976        42.10324        -2.55582
O         48.50876        44.42139        -2.40714
O         38.04941        17.50804        -0.47400
O         33.46266        33.42964         2.54520
O         41.99633        44.37726        -1.55886
O         38.55223        31.18436         2.83858
O         45.59110        31.03557         1.96576
H         44.92938        31.55607         2.47588
O         49.09449        21.25597        -1.69147
H         49.92952        20.74389        -1.60602
O         28.39539        28.61464        -2.92742
H         28.67980        29.49052        -3.28264
O         40.37376        18.19141        -1.30130
H         39.48070        17.90236        -1.60742
O         43.00500        45.46386         1.77205
H         42.95304        46.28731         2.30422
O         30.98689        33.79877         2.44639
H         31.71710        33.99615         3.07482
O         27.82970        46.26603        -1.92602
H         28.58350        45.69499        -2.23016
O         48.25313        22.28934         1.70745
H         47.85302        21.82156         2.46994
O         31.44761        28.71093        -2.01102
H         31.35319        29.60059        -2.42603
O         49.41166        39.80913         0.70175
H         48.79842        39.26027         1.23394
O         29.77006        26.35026        -2.30645
H         29.43730        27.11866        -2.84326
O         23.59100        46.80369         1.21957
H         22.73902        47.25019         1.40468
O         31.37144        35.13524        -0.92942
H         32.21962        34.90648        -1.37268
O         55.71981        24.80532         0.03781
H         55.95223        25.60821        -0.47680
O         43.90312        24.70196        -2.81611
H         43.19034        25.23340        -3.23355
O         25.17515        45.75383        -1.88540
H         26.10129        45.88978        -2.21117
O         24.12634        40.01196        -1.85923
H         24.98762        39.73276        -2.25205
O         48.21199        28.61003         0.79507
H         47.96431        29.46241         1.22135
O         49.44678        35.10151         1.47010
H         50.42875        35.09327         1.58112
O         39.27039        54.73492         3.13726
H         38.58448        55.22445         3.63962
O         59.14168        33.49271        -3.18515
H         58.34196        33.70730        -3.70974
O         33.96897        30.71173         2.88994
H         33.87581        31.61901         3.26472
O         32.37901        26.49211        -1.61208
H         31.61499        26.34580        -2.22544
O         30.99607        37.94335         2.09867
H         30.23994        38.21335         2.67818
O         34.59788        29.69888        -0.55035
H         34.35315        28.91057        -1.08180
O         31.09826        37.67257        -1.52301
H         31.60898        38.25282        -2.13578
O         27.09855        42.12648         2.11239
H         26.32881        42.45892         2.62914
O         52.85361        49.12449        -1.94639
H         52.87046        48.26039        -2.41057
O         40.59831        48.71908         2.73942
H         39.70306        48.71572         3.15438
O         32.68545        40.01519        -2.17393
H         31.86128        40.53542        -2.46137
O         44.27229        51.04600         2.48542
H         44.39022        50.13833         2.84894
O         40.96731        32.00476         2.89991
H         40.16707        31.87813         3.46409
O         35.68851        20.66502         2.25027
H         34.94951        20.58575         2.88999
O         58.68608        44.87358        -1.57107
H         58.06113        45.26031        -2.22689
O         53.45434        33.43347        -4.22998
H         54.37405        33.39116        -4.57850
O         44.31569        34.69336        -1.38511
H         44.20792        35.48362        -1.95716
O         41.36632        56.92770        -0.74115
H         42.10618        56.45782        -1.18185
O         41.28939        46.85060        -1.23038
H         41.39857        45.99489        -1.72161
O         31.61049        51.21599        -1.99134
H         31.65194        50.33117        -2.41928
O         26.38978        33.83608         1.35151
H         26.46468        32.92672         1.70850
O         25.26156        39.65212         1.65841
H         24.81023        40.31579         2.22940
O         40.56509        45.64734         2.18037
H         39.75033        45.27433         2.57784
O         46.51398        26.44243         1.00832
H         47.10067        27.19109         1.28203
O         28.52509        38.26584         2.12572
H         28.37974        37.33634         2.42221
O         36.66519        39.21890        -1.95561
H         35.76618        39.20220        -2.34905
O         49.93751        40.08690        -2.89784
H         50.57411        40.61647        -3.42175
O         38.51929        26.98078         2.78549
H         38.33690        26.03029         2.99390
O         40.19361        40.12482        -2.13112
H         40.21386        39.19749        -2.45131
O         51.44463        29.15065        -3.64571
H         51.33168        28.19347        -3.83794
O         37.84447        36.82190        -1.74031
H         37.52576        37.63852        -2.20222
O         48.78595        32.40451         1.59242
H         48.93865        33.27327         2.04070
O         26.65215        39.98062        -1.71782
H         27.54348        39.77716        -2.07785
O         54.85303        45.20474         1.24905
H         54.79500        45.92945         1.90753
O         30.12583        27.53352         1.16695
H         29.65559        26.72672         1.47752
O         53.85469        44.11608        -2.83758
H         54.75253        43.96020        -3.21862
O         54.46307        28.72447        -2.68209
H         54.03842        29.03723        -3.51415
O         33.87999        42.66290        -2.39611
H         34.78772        42.65652        -2.78403
O         49.60323        52.67709        -1.54058
H         48.80166        52.59790        -2.10603
O         50.72130        23.78298        -2.64064
H         50.13255        23.02617        -2.85651
O         51.60434        43.58046         0.98978
H         51.76780        44.45729         1.39879
H         22.17204        27.09121        -1.63205
H         22.30056        29.47875        -2.11263
H         22.33955        31.40034        -2.24423
H         22.17604        33.64899        -1.30288
H         22.09659        35.40481        -0.30370
H         22.04362        37.83911        -0.26702
H         21.89653        39.77160        -0.00071
H         21.83972        42.15628         0.41136
H         22.04039        43.97288        -1.19430
H         21.87013        46.42235        -1.34909
H         25.32840        23.69846        -0.36515
H         23.29313        24.96329        -0.90738
H         25.21726        50.01081        -0.44022
H         23.07646        48.91130        -0.80320
H         26.94660        22.54332        -0.37841
H         27.01718        50.87297        -0.72297
H         28.98250        21.27859        -0.07569
H         29.16182        51.96653        -0.70093
H         32.76787        19.01883         0.41386
H         30.67189        20.21968         0.02159
H         32.55598        53.91041         1.21223
H         30.74431        52.96355        -0.04001
H         34.35234        18.06772         1.70999
H         34.41788        54.98154         1.70546
H         36.40152        16.77675         1.62393
H         36.53980        56.17981         1.82014
H         40.53278        14.83581         2.04379
H         38.30764        15.77331         1.60425
H         40.24887        58.41734         1.37155
H         38.31753        57.15525         2.08914
H         42.95467        14.96998         1.98113
H         42.80784        58.38892         1.37935
H         45.03727        16.19694         1.52046
H         44.90387        57.15114         1.23913
H         48.67121        18.47004         1.07181
H         46.64297        17.09639         1.04446
H         48.66702        55.16233         0.35136
H         46.55484        56.29193         0.67143
H         49.76491        19.85935         2.15342
H         50.21877        53.96580         1.13695
H         51.90673        21.03738         2.22243
H         52.27753        52.66215         1.36949
H         55.50570        23.60346         2.52740
H         53.55391        22.20900         2.39794
H         56.07209        50.62561         0.90095
H         54.01153        51.87161         0.81931
H         56.48038        25.06778         3.38563
H         57.62709        49.62203         1.28224
H         58.10869        26.77056         4.13327
H         59.27410        28.88439         3.78276
H         59.61910        30.91658         2.43333
H         60.39321        31.55871         0.56142
H         60.90820        33.05481        -1.27875
H         60.91052        35.22983        -0.85267
H         60.92677        37.62431        -0.32311
H         60.80940        39.42578         0.36083
H         60.73348        41.78071         0.95915
H         60.57592        43.57735         1.60532
H         60.68880        46.01055         1.90487
H         59.62520        48.27806         1.74558
