         621
 CSIRO Nanostructure Databank - Neutral Graphene Oxide Data Set
C          5.80221        31.74336         0.90665
C          5.78047        33.11245         0.88100
C          8.32457        27.46750         0.44840
C          8.26055        28.85102         0.55795
C          7.04168        29.59100         0.73482
C          8.27091        31.71367         1.01848
C          7.03403        30.97775         0.88774
C          8.26303        33.20663         1.27678
C          6.98382        33.91094         0.88236
C          8.20052        36.04790         0.50259
C          6.98445        35.27037         0.65069
C          8.24928        37.42368         0.45182
C         10.97328        23.19666         0.11676
C         10.83867        24.59404         0.01527
C          9.63032        25.30980         0.18957
C         10.76424        27.47494         0.19213
C          9.56810        26.74513         0.24191
C         10.80673        28.93402         0.37464
C          9.50358        29.65581         0.49517
C         10.74904        31.77135         1.04158
C          9.48727        31.06298         0.94963
C         10.76649        33.14820         0.85404
C          9.47117        33.82471         0.60927
C         10.72760        36.00848         0.18274
C          9.45174        35.28780         0.28287
C         10.72540        37.40841         0.08156
C          9.48438        38.14915         0.22184
C         10.73580        40.25430        -0.10898
C          9.51723        39.53641         0.12853
C         10.76962        41.64862        -0.24053
C         13.46174        18.95173        -0.47547
C         13.43716        20.37194        -0.55827
C         12.23926        21.08823        -0.30336
C         13.38476        23.23735        -0.47842
C         12.20340        22.51586        -0.22371
C         13.42304        24.70011        -0.15247
C         12.05830        25.34697        -0.36708
C         13.27977        27.56185         0.00041
C         12.01188        26.85281        -0.24035
C         13.29894        28.72807         0.74189
C         12.05259        29.52322         0.98749
C         13.20340        31.95152         1.62099
C         12.01147        31.01476         1.30600
C         13.21639        33.23229         0.82546
C         11.97764        33.90024         0.66779
C         13.18929        35.92675         0.02574
C         11.96189        35.26790         0.25495
C         13.18187        37.33112        -0.51253
C         11.94653        38.11402        -0.15065
C         13.20873        40.20890        -0.46909
C         11.96601        39.50564        -0.23947
C         13.21514        41.61131        -0.64583
C         11.97534        42.35594        -0.51693
C         13.18945        44.48125        -0.88767
C         11.99636        43.75630        -0.62301
C         13.21896        45.88541        -0.86546
C         15.81135        14.58674        -0.97306
C         15.83554        16.03373        -1.38228
C         14.63464        16.80455        -0.86253
C         15.82688        18.94966        -1.21437
C         14.61089        18.19068        -0.82413
C         15.86761        20.41415        -1.00435
C         14.64787        21.10207        -0.83651
C         15.86809        23.33508        -1.09339
C         14.53416        22.57416        -1.19483
C         15.87463        24.75908        -0.66270
C         14.53911        25.46123        -0.89222
C         15.83199        27.60345        -0.12604
C         14.53426        26.93209        -0.47728
C         15.78086        28.79920         0.73800
C         14.56493        29.18448         1.24981
C         15.68976        31.73562         1.03570
C         14.54524        31.29102         1.61202
C         15.66443        33.00911         0.24163
C         14.41751        33.84016         0.46062
C         15.65674        35.91943        -0.10208
C         14.41606        35.21814         0.08508
C         15.66653        37.33346        -0.15887
C         14.46867        38.07400        -0.25379
C         15.66103        40.22142        -0.58572
C         14.45139        39.49681        -0.40678
C         15.64599        41.56324        -1.00937
C         14.42965        42.29523        -0.95185
C         15.59796        44.42616        -1.36701
C         14.42869        43.73932        -1.10383
C         15.58951        45.88207        -1.60172
C         14.39983        46.63048        -1.14509
C         15.71381        48.73816        -1.14433
C         14.48819        48.00909        -0.97526
C         15.76160        50.11387        -0.69510
C         18.16970        10.36083        -0.04721
C         18.14829        11.77945        -0.05164
C         16.94819        12.50501        -0.30955
C         18.11700        14.69612        -0.08913
C         16.92642        13.91327        -0.51388
C         18.23172        16.12419        -0.49834
C         17.13174        16.74968        -1.02995
C         18.37521        18.95697        -1.06261
C         17.14623        18.20122        -1.31883
C         18.35486        20.34423        -0.97018
C         17.11669        21.07394        -1.01310
C         18.36586        23.22839        -0.49158
C         17.15252        22.55576        -1.01026
C         18.32002        24.65558        -0.21346
C         17.05666        25.39667        -0.33596
C         18.20287        27.48304         0.43080
C         17.08050        26.82268        -0.02898
C         18.22225        28.89752         0.75206
C         16.99028        29.56327         0.95303
C         18.15730        31.71923         0.96074
C         16.95368        30.99217         1.04707
C         18.13528        33.15706         0.70376
C         16.94742        33.77748         0.38130
C         18.25403        35.87765        -0.11159
C         16.92556        35.15820        -0.10262
C         18.23209        37.33771        -0.11898
C         16.95310        38.05345        -0.03321
C         18.17778        40.11844        -0.83680
C         16.94000        39.56388        -0.27179
C         18.23667        41.52190        -1.27734
C         16.90672        42.23080        -1.41762
C         18.05315        44.54347        -0.99661
C         16.88820        43.72343        -1.55277
C         18.21291        45.88472        -1.70735
C         16.89699        46.64364        -1.84486
C         18.13282        48.86713        -1.75124
C         16.88581        48.09500        -1.57677
C         18.05300        50.35872        -1.54531
C         16.92132        50.86930        -0.72782
C         18.26228        52.75600         0.27301
C         17.05668        52.16893        -0.13521
C         18.26820        54.12584         0.63781
C         20.58560         6.05703         0.00909
C         20.61481         7.45771        -0.03350
C         19.41307         8.21210         0.08253
C         20.61757        10.35902         0.02094
C         19.38358         9.63625         0.03940
C         20.60483        11.75988         0.01986
C         19.39032        12.48120         0.09564
C         20.64188        14.72515         0.57617
C         19.35450        13.94481         0.32579
C         20.68408        16.11425        -0.06849
C         19.54126        16.78506        -0.44949
C         20.89753        18.93286        -0.85411
C         19.63482        18.13081        -1.18054
C         20.78781        20.38290        -0.55898
C         19.59655        21.07132        -0.66989
C         20.75068        23.16042         0.14476
C         19.52753        22.49196        -0.34615
C         20.73991        24.64129         0.41373
C         19.46310        25.32919         0.18468
C         20.75292        27.49042         0.73771
C         19.44728        26.73363         0.59943
C         20.72033        28.96969         0.77039
C         19.44789        29.61477         0.87302
C         20.62797        31.75490         1.17833
C         19.41931        31.03810         1.00201
C         20.52188        33.22650         1.49044
C         19.38944        33.90079         0.76580
C         20.66958        36.07644         0.68512
C         19.46384        35.22448         0.42186
C         20.73202        37.41990         0.01005
C         19.44045        38.00678        -0.31242
C         21.06294        40.34500        -0.88532
C         19.27306        39.29640        -0.94243
C         20.80186        41.66671        -0.54143
C         19.54657        42.33251        -0.99680
C         20.67816        44.60233        -0.52188
C         19.39432        43.80906        -0.70840
C         20.73823        46.00838        -0.98009
C         19.49873        46.63588        -1.54288
C         20.72151        48.81668        -1.20441
C         19.47207        48.14328        -1.64592
C         20.79416        50.05338        -0.57700
C         19.64126        50.51429         0.24632
C         20.78535        52.75051         0.38745
C         19.52724        51.96978         0.66915
C         20.74012        54.12198         0.90502
C         19.44054        54.83756         0.97886
C         20.61005        56.99518         1.40590
C         19.42482        56.19986         1.31931
C         20.64534        58.30090         1.88436
C         23.09130         3.20531         0.04675
C         21.87341         3.85198         0.07260
C         23.12265         6.03675        -0.47966
C         21.75873         5.25627        -0.30127
C         23.09022         7.49032        -0.25954
C         21.88751         8.15688        -0.12650
C         23.10458        10.31029        -0.47735
C         21.92693         9.62928         0.22701
C         23.17553        11.76921        -0.12029
C         21.88240        12.50035        -0.11573
C         23.15390        14.62457         0.50693
C         21.87298        13.96148         0.13699
C         23.15218        16.08797         0.31883
C         22.00710        16.74302        -0.07797
C         23.32029        18.89775         0.09303
C         22.11522        18.18693        -0.39366
C         23.28099        20.36295         0.20558
C         22.00438        21.07307        -0.07015
C         23.22878        23.25864        -0.08580
C         22.05014        22.54126        -0.12858
C         23.21422        24.68460         0.09265
C         22.01999        25.38744         0.31429
C         23.22522        27.54428         0.51177
C         22.01798        26.81000         0.41155
C         23.24435        29.06820         0.55823
C         21.90442        29.69058         0.86898
C         23.06872        31.77534         1.63446
C         21.88139        31.09011         1.18304
C         22.91286        33.15265         1.91683
C         21.85143        33.92579         1.42337
C         23.26397        36.11009         1.06065
C         21.92094        35.40269         1.26276
C         23.21922        37.49214         0.46266
C         21.94990        38.13697        -0.01462
C         23.30878        40.26536        -0.08080
C         22.09635        39.53664        -0.30597
C         23.28412        41.68370        -0.13361
C         21.99209        42.39461        -0.05356
C         23.26147        44.56627        -0.60177
C         21.99940        43.91859        -0.25767
C         23.24239        45.95975        -0.97177
C         21.95359        46.62750        -1.16628
C         23.24978        48.83090        -1.44841
C         21.96672        48.07472        -1.52407
C         23.23424        50.25425        -1.03064
C         22.00649        50.82725        -0.56078
C         23.16500        53.02959        -0.27652
C         21.96406        52.20106        -0.10666
C         23.17440        54.34926         0.11843
C         21.99728        54.93670         0.79185
C         23.14899        57.18965         1.02430
C         21.85834        56.41868         0.86018
C         23.12572        58.44875         1.75966
C         21.87493        59.03176         2.08228
C         23.08771        60.96082         2.97130
C         21.87944        60.31033         2.69559
C         24.31694         3.89244        -0.10442
C         25.56559         6.01875        -0.05888
C         24.36916         5.29647        -0.20920
C         25.60401         7.44234        -0.07336
C         24.36878         8.19009        -0.16590
C         25.63727        10.29203        -0.09302
C         24.40231         9.58031        -0.20044
C         25.65207        11.70738        -0.04112
C         24.37580        12.41213        -0.00131
C         25.66021        14.61155        -0.09346
C         24.42701        13.85373         0.35834
C         25.73738        16.00655         0.48402
C         24.43466        16.78035         0.57490
C         25.73366        18.98009         0.58564
C         24.46067        18.24338         0.43097
C         25.75002        20.42075         0.21205
C         24.56284        21.09626         0.10725
C         25.82673        23.29172        -0.23365
C         24.52113        22.53420        -0.24967
C         25.80609        24.79926        -0.14733
C         24.47034        25.45905         0.02628
C         25.60972        27.43008         1.11353
C         24.43743        26.84167         0.52332
C         25.32012        28.70395         1.78892
C         24.33610        29.58274         1.47208
C         25.70147        31.79889         1.68106
C         24.35860        31.02196         2.03151
C         25.73266        33.11231         1.27274
C         24.89532        34.23704         1.85641
C         25.74781        35.92535         0.29665
C         24.53793        35.35416         0.92801
C         25.78811        37.36646        -0.09852
C         24.48593        38.10957        -0.08580
C         25.76316        40.26503        -0.07313
C         24.54581        39.57718        -0.02338
C         25.73801        41.69675        -0.16210
C         24.48976        42.40875        -0.19230
C         25.71713        44.50350        -0.58497
C         24.47022        43.83557        -0.43815
C         25.71350        45.89048        -1.10728
C         24.45033        46.65468        -1.14313
C         25.69926        48.81511        -1.33310
C         24.52430        48.09274        -1.28151
C         25.70691        50.32361        -1.57638
C         24.42173        50.96454        -1.06906
C         25.72239        53.17041        -0.77858
C         24.38019        52.41789        -0.87199
C         25.72355        54.57179        -0.23808
C         24.39659        55.19276         0.09208
C         25.69772        57.04509         1.39667
C         24.38971        56.36852         1.03095
C         25.60662        58.44244         1.80747
C         24.37169        59.06788         2.10271
C         24.31443        60.36582         2.69413
C         26.82328         8.13833         0.01339
C         28.09142        10.26620         0.12648
C         26.87446         9.55760         0.01768
C         28.13020        11.68161         0.14027
C         26.88904        12.41679         0.06892
C         28.15631        14.53884         0.14210
C         26.94156        13.83946         0.09236
C         28.19679        15.99680         0.11775
C         27.00266        16.72267         0.26555
C         28.21798        18.90778        -0.03922
C         27.01809        18.17970         0.44479
C         28.22031        20.37924         0.08050
C         27.03791        21.10468         0.10178
C         28.21702        23.24854         0.42177
C         27.05818        22.55596         0.12016
C         28.24260        24.68197         0.64674
C         27.08924        25.58189         0.19408
C         28.13484        27.49215         1.51585
C         26.85635        26.80781         1.10074
C         28.21050        28.98627         1.42030
C         27.20563        29.73754         1.94489
C         28.21818        31.87696         1.66458
C         27.03367        31.16413         1.75467
C         28.23310        33.35412         1.81977
C         26.93576        34.02390         1.48899
C         28.32233        36.04778         0.62057
C         27.06366        35.23573         0.57124
C         28.29393        37.44063         0.29644
C         27.05305        38.13370         0.04115
C         28.24522        40.30029         0.03681
C         27.02294        39.54020        -0.01810
C         28.21319        41.71485        -0.07037
C         26.96030        42.41293        -0.20761
C         28.17290        44.59767        -0.22024
C         26.92431        43.82548        -0.38171
C         28.20830        46.04542        -0.59702
C         27.00211        46.63129        -1.25621
C         28.28376        48.86928        -1.30806
C         26.99365        48.11783        -1.45573
C         28.21173        50.31710        -0.99641
C         26.97494        51.00503        -1.02200
C         28.15199        53.02942        -0.22694
C         26.95945        52.37272        -0.67515
C         28.14376        54.36888         0.24786
C         26.96054        55.13133         0.37753
C         26.94559        56.37926         0.99633
C         29.35285        12.39914         0.22373
C         30.62621        14.53501         0.24406
C         29.39556        13.80742         0.21700
C         30.66663        15.93136         0.15683
C         29.46444        16.66700         0.08218
C         30.77558        18.87197         0.10866
C         29.51082        18.13336        -0.13208
C         30.76689        20.26720         0.26777
C         29.52141        21.04546         0.03056
C         30.70557        23.09242         1.01484
C         29.50691        22.53253         0.33786
C         30.64603        24.55302         1.38509
C         29.40204        25.29099         1.04487
C         30.68424        27.44679         0.97213
C         29.41316        26.74421         1.34381
C         30.68544        28.94903         0.78609
C         29.39348        29.70282         0.90317
C         30.76558        31.83282         1.30224
C         29.44025        31.18847         1.18615
C         30.79475        33.26788         1.63705
C         29.52486        34.08190         1.64149
C         30.75791        36.16726         0.95573
C         29.53268        35.45949         1.05511
C         30.76444        37.52309         0.53758
C         29.51826        38.18287         0.29896
C         30.71917        40.34087         0.11315
C         29.50042        39.60994         0.12730
C         30.67007        41.77112         0.21854
C         29.43855        42.46091        -0.01128
C         30.66303        44.59162        -0.21704
C         29.44794        43.87496        -0.12223
C         30.69414        46.01406        -0.47443
C         29.50721        46.73781        -0.73600
C         30.75193        48.82909        -0.82249
C         29.52970        48.12670        -0.95707
C         30.76762        50.33638        -0.94422
C         29.42326        50.99297        -0.69346
C         29.38131        52.31878        -0.28585
C         32.01223        16.63180         0.02715
C         33.18660        18.83386         0.37820
C         31.99361        18.14087         0.21984
C         33.21790        20.25844         0.49999
C         31.97780        20.97778         0.51252
C         33.19475        23.07623         0.92437
C         31.99427        22.38751         0.80032
C         33.24807        24.51733         1.27176
C         31.94669        25.30559         1.51983
C         33.14441        27.46387         1.06758
C         31.96467        26.75895         1.22213
C         33.13082        28.91380         0.96744
C         31.96037        29.66189         0.97038
C         33.19872        31.85025         1.01370
C         31.94901        31.11979         1.13269
C         33.25058        33.22496         1.03142
C         32.10261        34.01909         1.50131
C         33.33586        36.22483         0.94226
C         32.05196        35.51765         1.31188
C         33.25900        37.56229         0.29624
C         32.00551        38.23560         0.27842
C         33.15971        40.24468        -0.55290
C         31.97019        39.61769        -0.07521
C         33.19504        41.59660        -1.21330
C         31.82334        42.57635         0.49153
C         33.15398        44.56750        -0.28371
C         31.89274        43.90754         0.01761
C         33.15743        45.96543        -0.42028
C         31.94463        46.70818        -0.48281
C         31.93608        48.12327        -0.61614
C         34.42983        20.98370         0.55154
C         35.62963        23.14938         0.52236
C         34.44242        22.39408         0.67711
C         35.63663        24.57830         0.52825
C         34.45716        25.27139         0.92594
C         35.68055        27.45878         0.49767
C         34.44532        26.73020         1.05103
C         35.47111        28.86031         0.04832
C         34.43463        29.61464         0.82723
C         35.51528        31.77563        -0.02630
C         34.45492        31.09738         0.76082
C         35.50158        33.14459        -0.09523
C         34.51756        33.91050         0.69751
C         35.64239        36.03287        -0.11001
C         34.58693        35.40359         0.73010
C         35.75153        37.51906        -0.02149
C         34.43963        38.22238        -0.09896
C         35.65009        40.30725        -0.78145
C         34.40084        39.57715        -0.50337
C         35.60408        41.74089        -0.87731
C         34.39369        42.43847        -0.86161
C         34.33661        43.82257        -0.57881
C         36.78940        25.28322         0.07654
C         37.82926        27.37200        -0.73548
C         36.80309        26.69302        -0.09422
C         37.78380        28.81797        -1.18737
C         36.55542        29.58444        -0.70461
C         37.82853        31.75433        -0.85429
C         36.61096        31.05379        -0.61394
C         37.85413        33.17053        -0.92871
C         36.45988        33.79920        -1.05162
C         38.38101        36.30695        -1.08740
C         36.40305        35.28812        -0.93990
C         38.33393        37.55054        -0.52348
C         37.02735        38.26456        -0.33479
C         36.87669        39.66885        -0.74452
C         39.04938        29.59562        -0.92192
C         40.30516        31.70273        -0.80570
C         39.06088        30.96397        -0.87999
C         40.31719        33.05831        -0.81935
C         39.11426        33.87602        -0.93329
C         39.35445        35.26271        -0.92301
O         21.96791        43.30253         1.07684
O         20.99078        36.12672         2.13290
O         26.26038        29.09737         2.74346
O         25.24757        22.81296        -1.49439
O         22.36845         5.57081        -1.60796
O         28.74050        18.49696        -1.34551
O         25.12874        16.27287         1.76988
O         20.08629        26.91718         1.92062
O         29.73148        22.05338        -1.02374
O         24.99440        53.09256        -2.02596
O         16.38915        18.59264        -2.52500
O         18.92153        49.67647         0.79987
O         22.63379        48.50930        -2.75192
O         21.63615        54.31886         2.06762
O         26.43875        35.06291        -0.72894
O         18.36905        14.39130         1.33388
O         24.90541        56.12764         2.34357
O         28.87843        26.98706         2.69585
O         15.24867        27.75474        -1.47496
O         34.94372        30.37094         1.96153
O         35.33898        29.05387        -1.38995
O         29.18961        30.63881        -0.19243
O         10.24772        29.61722        -0.80161
O         19.12944        45.95646        -2.81197
O         35.08545        34.65479         1.86899
O          9.28330        34.23508        -0.76866
O         22.43018        57.15275        -0.25405
O         14.56345        30.08392         2.33365
O         22.38644        20.70284         1.34454
O         35.50454        27.28625         1.91860
O         21.95194        18.57831        -1.83089
O         26.12792        34.58791         2.63447
O         25.02641        37.59602        -1.34304
O         16.06238        46.22445        -2.96098
O         27.97734        45.66928         0.80988
O         32.75807        24.87505         2.63142
O         19.80556        44.25404         0.61368
O         27.76164        48.53978        -2.65734
O         32.83363        36.24710         2.31038
O         26.48142        45.91398        -2.40727
O         16.98696        39.03225         1.08827
O         23.34284        37.32842         1.91749
O         23.86756        14.11376         1.67722
O         16.68950        23.13564        -2.30419
O         32.41190        41.91074        -2.09711
O         20.66722        23.67819         1.52252
O         37.24458        35.93937        -1.85226
O         21.82412        13.50082        -1.24029
O         20.27555        39.68533        -1.83021
O         26.54950        18.66117         1.75484
O         11.91510        26.16304        -1.54554
O         18.94675        48.56088        -2.93413
O         25.15335        25.37456        -1.32156
O         25.05415        55.49356        -1.16743
O         16.90101        42.90592        -2.73804
O         30.44785        23.50438         2.39178
O         19.14698        41.91495        -2.33036
O         30.65908        28.04304        -0.36889
O         36.57130        38.04044         1.07771
O         11.83089        29.99331         2.35602
O         31.62304        33.57684         2.80456
O         28.89912        33.94591         2.97358
O         18.83268        51.13013        -2.09660
O         17.70864        35.31629        -1.36949
O         23.86762        33.81237         2.70246
O         17.48625        44.91916         0.29526
H         18.23035        44.96194         0.94741
O         23.57976        29.50382        -0.80071
H         22.93235        29.10690        -1.42037
O         32.97422        16.03124         0.90085
H         32.69209        16.18539         1.82547
O         19.67669        17.76974        -2.58915
H         20.62557        17.79939        -2.86122
O         19.42153        51.89538         2.12416
H         18.91224        51.07643         2.32441
O         15.73603        16.01175        -2.84220
H         15.89889        16.93759        -3.15378
O         15.60307        32.61319        -1.17413
H         15.93832        33.36079        -1.71463
O         13.11362        37.18611        -1.98909
H         13.87012        36.62539        -2.26507
O         25.74808        50.49456        -3.01515
H         26.46816        49.91004        -3.35158
O         14.28863        25.37930        -2.30223
H         14.69709        26.17093        -2.71766
O         22.83182        10.21821        -1.90220
H         23.50304        10.74492        -2.38305
O         12.96684        32.37298         2.99698
H         12.83570        31.54937         3.51851
O         14.15963        22.53824        -2.60801
H         14.98740        22.68169        -3.12438
O         37.67194        28.73288        -2.64543
H         36.71677        28.59497        -2.84063
O         20.78085        14.91698         1.99840
H         19.87323        15.04640         2.35949
O         32.83405        42.10169         1.26348
H         32.62424        41.20373         1.59301
O         22.20368         9.70821         1.65708
H         21.45290         9.29975         2.13681
O         20.14786        33.32792         2.91948
H         20.24931        34.27666         3.16631
O          8.44022        33.41930         2.70989
H          7.69366        32.98567         3.17360
O         31.19582        50.69722        -2.27295
H         30.53349        50.35704        -2.90994
O         25.49591        14.82746        -1.53117
H         25.61870        13.97023        -1.99062
O         27.57740        26.15593        -1.04740
H         26.79542        26.25252        -1.64332
O         13.74051        24.84247         1.27069
H         13.14268        24.25309         1.77816
O         35.99487        33.48249        -2.40891
H         36.56481        33.99027        -3.02671
O         24.33165        30.93110         3.46788
H         24.35210        31.84392         3.82950
H          4.85278        31.18918         0.86154
H          4.81386        33.63324         0.79837
H          7.39200        26.88530         0.50423
H          6.08392        29.04990         0.69326
H          6.02251        35.78939         0.50947
H          7.32572        38.00774         0.58642
H         10.09010        22.58516         0.35559
H          8.70216        24.74225         0.35653
H          8.58122        40.10771         0.22388
H          9.83470        42.22099        -0.14140
H         12.53705        18.42083        -0.20357
H         11.31715        20.52283        -0.10089
H         11.05981        44.31627        -0.47892
H         12.30056        46.43357        -0.60549
H         14.90279        14.01647        -1.22147
H         13.72086        16.24548        -0.60920
H         13.60319        48.56261        -0.62732
H         14.86427        50.51885        -0.20096
H         17.22089         9.81064        -0.13022
H         16.02706        11.93503        -0.50457
H         16.13723        52.76390         0.00442
H         17.32321        54.68781         0.56196
H         19.65708         5.54499         0.30269
H         18.45780         7.66805         0.12940
H         18.45466        56.69131         1.49094
H         19.71240        58.76560         2.23790
H         23.12575         2.12813         0.26486
H         20.97102         3.31882         0.40549
H         23.06596        61.95732         3.43455
H         20.92526        60.79059         2.95403
H         25.25730         3.33405         0.00793
H         26.50962         5.46557         0.06202
H         26.53665        59.01964         1.91891
H         25.25043        60.88445         2.94440
H         27.76222         7.56903         0.08391
H         29.03388         9.70390         0.20572
H         29.09160        54.80053         0.60155
H         27.89720        56.82076         1.32884
H         30.29600        11.83461         0.27605
H         31.57395        13.97862         0.29067
H         31.52965        50.76021        -0.24195
H         30.31292        52.84123        -0.02377
H         32.38203        16.43653        -1.01884
H         34.13355        18.27479         0.40204
H         34.10851        46.48660        -0.60711
H         32.88802        48.67145        -0.55846
H         35.38428        20.44648         0.44994
H         36.56615        22.62200         0.28966
H         36.55324        42.29444        -0.79524
H         35.29050        44.37678        -0.58613
H         37.65318        24.69995        -0.27426
H         38.66350        26.77864        -1.14236
H         39.18583        37.91757         0.06848
H         37.78447        40.24722        -0.97574
H         40.00335        29.04680        -0.92453
H         41.24795        31.13866        -0.75825
H         41.28018        33.58884        -0.77311
H         40.38177        35.57763        -0.67952
