         620
 CSIRO Nanostructure Databank - Neutral Graphene Oxide Data Set
C         23.07249        27.46823         1.31001
C         23.05184        28.80377         0.97716
C         23.02672        31.70201         0.54320
C         23.01004        33.07929         0.47520
C         22.98627        36.00459         0.42678
C         22.97415        37.38031         0.35679
C         22.95047        40.29642         0.22448
C         22.93927        41.67384         0.15941
C         22.98939        44.59177         0.40410
C         23.05414        45.95056         0.66597
C         25.54953        24.75332         1.97777
C         24.34350        25.40682         1.84868
C         25.52528        27.46360         1.21653
C         24.30267        26.77185         1.46060
C         25.47445        28.82241         0.79175
C         24.25637        29.52360         0.72031
C         25.44655        31.70357         0.38072
C         24.24459        30.97323         0.50782
C         25.44400        33.12878         0.34058
C         24.20930        33.83026         0.38561
C         25.41055        35.99214         0.13373
C         24.19716        35.27561         0.31695
C         25.39821        37.41906         0.03167
C         24.16793        38.11848         0.15326
C         25.35682        40.26758        -0.18983
C         24.15118        39.55976         0.07223
C         25.31876        41.68200        -0.31004
C         24.12403        42.40629        -0.10563
C         25.33533        44.58338        -0.22764
C         24.12894        43.86985        -0.02739
C         25.43191        45.93792         0.16026
C         24.28477        46.63927         0.59352
C         25.51980        48.76107         0.80021
C         24.35995        48.06271         0.86173
C         28.10185        23.32047         1.87980
C         28.04675        24.70223         1.89749
C         26.78609        25.42588         1.76654
C         28.02121        27.53062         1.24581
C         26.77819        26.79297         1.41366
C         28.00062        28.80965         0.75591
C         26.73258        29.47495         0.39968
C         27.99169        31.73832         0.37982
C         26.72363        30.98627         0.20954
C         27.93783        33.18684         0.26520
C         26.67869        33.86834         0.21348
C         27.87332        36.01539        -0.11608
C         26.65749        35.27992         0.07249
C         27.86409        37.43317        -0.26796
C         26.62120        38.14770        -0.19135
C         27.83509        40.26621        -0.57695
C         26.60476        39.55442        -0.33214
C         27.82870        41.67051        -0.79848
C         26.52320        42.37754        -0.80383
C         27.77592        44.63258        -1.03018
C         26.49252        43.88420        -0.82782
C         27.89246        46.04020        -0.53049
C         26.74637        46.61465         0.23490
C         28.05685        48.83011         0.25561
C         26.81064        48.08151         0.58766
C         28.11229        50.22460         0.40722
C         30.54851        23.23064         1.66857
C         29.32054        22.60288         1.78297
C         30.62170        24.68633         1.87316
C         29.30488        25.45556         2.02946
C         30.58050        27.49904         1.24827
C         29.29757        26.97014         1.85759
C         30.55751        28.90641         0.77402
C         29.24829        29.57752         0.51495
C         30.45279        31.79818         0.60250
C         29.18120        31.06115         0.51576
C         30.42185        33.26729         0.30004
C         29.12320        33.92279         0.11962
C         30.34597        36.02204        -0.34001
C         29.11693        35.32216        -0.12763
C         30.33235        37.42211        -0.53034
C         29.08835        38.13539        -0.46949
C         30.30235        40.26624        -0.81273
C         29.07506        39.55629        -0.62899
C         30.27871        41.68223        -0.97674
C         29.03158        42.37042        -1.01988
C         30.32747        44.59311        -1.22685
C         29.02268        43.83313        -1.29789
C         30.33632        46.03474        -0.84846
C         29.22130        46.69822        -0.41791
C         30.47046        48.83773        -0.14671
C         29.24637        48.13243        -0.08372
C         30.51790        50.23877         0.02128
C         29.30588        50.92107         0.25724
C         32.97835        20.39771         1.28016
C         31.79715        21.09694         1.41077
C         33.00327        23.21477         1.22903
C         31.78417        22.51156         1.42301
C         33.00654        24.66539         1.16970
C         31.84939        25.39424         1.45187
C         33.03452        27.52880         0.89969
C         31.79427        26.82931         1.25692
C         33.03614        28.92067         0.69289
C         31.80273        29.71275         1.05565
C         32.83789        31.70112        -0.09870
C         31.73467        31.07915         0.41797
C         32.75232        33.07182        -0.75362
C         31.61516        33.91991        -0.24970
C         32.81601        35.98929        -0.78715
C         31.58838        35.28327        -0.46904
C         32.80697        37.39558        -0.88319
C         31.56381        38.13051        -0.75659
C         32.79109        40.26456        -0.92102
C         31.54800        39.53880        -0.84678
C         32.75703        41.66700        -0.91126
C         31.53225        42.41510        -1.00975
C         32.82102        44.55204        -1.04207
C         31.57021        43.82046        -1.02449
C         32.86084        45.97567        -1.05336
C         31.60627        46.80720        -1.12503
C         32.97517        48.82942        -0.59203
C         31.74528        48.03153        -0.21818
C         32.97261        50.26289        -0.47158
C         31.78821        50.96195        -0.11868
C         33.02223        53.07494        -0.21144
C         31.85865        52.36421         0.04264
C         35.48361        18.92637         1.26011
C         35.45618        20.33125         1.06973
C         34.21418        21.07072         1.13047
C         35.46388        23.18802         0.81820
C         34.22141        22.49174         1.05913
C         35.47190        24.60743         0.69954
C         34.24095        25.35564         0.84970
C         35.50965        27.46470         0.57406
C         34.23508        26.75622         0.76282
C         35.46901        28.94758         0.18789
C         34.16200        29.63184         0.17519
C         35.20969        31.63342        -0.90975
C         34.07365        30.96467        -0.23328
C         35.25738        33.12242        -0.93108
C         34.06142        33.83095        -0.78075
C         35.27077        35.94748        -1.11477
C         34.04498        35.25284        -0.87706
C         35.24491        37.36345        -1.27178
C         34.04068        38.09208        -1.12215
C         35.25767        40.22934        -1.17490
C         34.04523        39.54088        -1.07416
C         35.32784        41.64395        -0.82911
C         34.00545        42.41490        -0.74467
C         35.28696        44.50619        -1.49304
C         34.03076        43.84502        -1.00411
C         35.30499        45.98704        -1.23110
C         34.11225        46.67204        -1.05053
C         35.38460        48.83792        -1.05704
C         34.13015        48.13325        -0.91248
C         35.37774        50.26821        -1.02080
C         34.17628        50.98832        -0.74102
C         35.36138        53.12446        -1.12627
C         34.19358        52.41950        -0.65719
C         35.50924        54.57920        -1.09251
C         37.90707        18.87810         1.01655
C         36.66880        18.22426         1.24122
C         37.91016        20.29040         0.81880
C         36.67813        21.01836         0.85314
C         37.90741        23.12113         0.42440
C         36.67701        22.44628         0.68586
C         37.90783        24.52898         0.30217
C         36.70928        25.27507         0.42887
C         37.86141        27.40506        -0.15789
C         36.72705        26.70901         0.25751
C         37.78098        28.76674        -0.62223
C         36.60348        29.49057        -0.55819
C         37.73218        31.64090        -1.25238
C         36.48990        30.86109        -1.11557
C         37.72964        33.03437        -1.28235
C         36.49104        33.80385        -1.16237
C         37.73459        35.93615        -1.52436
C         36.49935        35.21895        -1.26089
C         37.78130        37.32314        -1.64213
C         36.48472        38.04727        -1.69055
C         37.79241        40.29806        -1.63000
C         36.47169        39.57109        -1.68135
C         37.82469        41.61013        -0.85466
C         36.56846        42.39917        -1.05761
C         37.80094        44.49196        -1.07144
C         36.56845        43.77901        -1.13053
C         37.77128        45.96120        -0.90558
C         36.59870        46.69698        -1.52215
C         37.84887        48.89301        -1.17164
C         36.60477        48.17294        -1.21852
C         37.85898        50.32658        -1.29875
C         36.56873        50.96618        -1.35641
C         38.27527        53.41957        -1.58328
C         36.39174        52.34647        -1.64485
C         38.11414        54.90894        -1.33135
C         36.65401        55.30509        -1.12740
C         40.32947        16.04094         1.45324
C         39.18018        16.69212         1.18829
C         40.34246        18.82130         0.77002
C         39.14561        18.14401         0.98807
C         40.36728        20.23528         0.57105
C         39.14705        20.97945         0.59082
C         40.38367        23.04275         0.05145
C         39.15348        22.38749         0.35955
C         40.41106        24.47118        -0.23280
C         39.19557        25.23155         0.13756
C         40.35128        27.34112        -0.76261
C         39.16935        26.71860        -0.13913
C         40.28494        28.70049        -1.11235
C         38.97953        29.37658        -1.24513
C         40.24769        31.61120        -1.39193
C         38.97406        30.89264        -1.47602
C         40.21502        33.03328        -1.40016
C         38.97734        33.72052        -1.44754
C         40.31154        35.91364        -1.71696
C         38.96629        35.15834        -1.72346
C         40.25997        37.37398        -1.55797
C         39.05359        38.03853        -1.68097
C         40.32681        40.23156        -1.24314
C         39.08019        39.53144        -1.67554
C         40.31346        41.65799        -1.10606
C         39.08240        42.39372        -1.10417
C         40.28694        44.58054        -1.15735
C         39.03475        43.79647        -1.09000
C         40.31411        45.99513        -0.79122
C         39.04014        46.72576        -0.72097
C         40.27478        48.87057        -0.73855
C         39.06713        48.18478        -0.95769
C         40.24531        50.29942        -0.72956
C         39.09721        51.04918        -1.10640
C         40.31847        53.17371        -0.34814
C         39.16697        52.53237        -1.05400
C         40.26483        54.62749         0.00020
C         39.03999        55.41187        -0.23517
C         39.88144        56.98878         1.45461
C         38.88809        56.55518         0.53360
C         42.87084        16.00538         1.37383
C         41.61680        16.82019         1.58242
C         42.88235        18.77260         0.64916
C         41.59516        17.98846         0.59797
C         42.85950        20.15402         0.39225
C         41.60709        20.90871         0.34541
C         42.84961        22.94603        -0.35286
C         41.59141        22.29765         0.08710
C         42.78407        24.35799        -0.92682
C         41.53641        25.13943        -0.70752
C         42.70756        27.30475        -1.36841
C         41.55351        26.59001        -0.94539
C         42.71802        28.73758        -1.33665
C         41.47503        29.43800        -1.32270
C         42.68950        31.55885        -1.09600
C         41.47035        30.87637        -1.32777
C         42.61341        32.99339        -0.76651
C         41.44895        33.77567        -1.22769
C         42.73868        35.88156        -1.00391
C         41.51233        35.16032        -1.30199
C         42.77862        37.34352        -1.07921
C         41.58982        38.10047        -1.63940
C         42.75515        40.21410        -0.88619
C         41.54014        39.53841        -1.17800
C         42.75254        41.63385        -0.74362
C         41.54312        42.34066        -0.92559
C         42.76376        44.50950        -0.49427
C         41.60354        43.80078        -1.02824
C         42.75910        45.93343        -0.44084
C         41.52160        46.67327        -0.64086
C         42.73262        48.76257        -0.27063
C         41.51861        48.11915        -0.51340
C         42.74388        50.20688        -0.01308
C         41.45204        50.96991        -0.19487
C         42.82957        52.96637        -0.45264
C         41.58736        52.41171        -0.42836
C         42.74533        55.01946         0.24479
C         41.43193        55.39573         0.49664
C         42.31066        56.84695         2.22685
C         41.18965        56.43271         1.43835
C         44.02621        16.61913         1.04550
C         45.34309        18.75384         0.77510
C         44.09685        18.06174         0.81581
C         45.34299        20.15829         0.52411
C         44.10392        20.83963         0.29042
C         45.30364        22.89856         0.26008
C         44.09850        22.24582         0.06888
C         45.30944        24.68271        -0.90471
C         44.00678        25.13784        -1.37524
C         45.24416        27.37620        -1.80309
C         43.96173        26.61926        -1.74953
C         45.23387        28.71568        -1.09794
C         43.93672        29.46930        -1.24865
C         45.16823        31.60535        -0.76687
C         43.92611        30.86743        -1.03137
C         45.16601        32.99323        -0.46233
C         43.87702        33.72941        -0.39253
C         45.10805        35.90219        -0.26889
C         43.86957        35.18412        -0.60705
C         45.25358        37.29515        -0.81732
C         43.94264        38.03732        -0.81667
C         45.19914        40.14565        -0.46798
C         43.99848        39.48582        -0.74388
C         45.28151        41.64855        -0.58783
C         43.95498        42.35101        -0.42897
C         45.05648        44.39782         0.46801
C         43.90850        43.72733        -0.17165
C         45.11853        45.90975         0.41202
C         43.95239        46.63874        -0.13042
C         45.19706        48.75605         0.13272
C         43.97162        48.05115        -0.10626
C         45.22574        50.16197         0.14184
C         44.03893        50.91961         0.01196
C         45.15066        53.12751         0.44213
C         44.04900        52.33482        -0.01903
C         45.06214        54.45278         1.00137
C         43.82442        55.25023         1.12025
C         43.55010        56.22016         2.13014
C         47.80539        18.79841         0.89344
C         46.61567        18.11572         0.96931
C         47.85315        20.20597         0.61660
C         46.58899        20.86127         0.44770
C         47.75747        22.96455        -0.16021
C         46.56775        22.25748         0.21883
C         47.72575        24.12457        -1.00322
C         46.50700        24.70659        -1.54827
C         47.73126        27.48300        -1.97777
C         46.44609        26.83539        -2.21642
C         47.72143        28.93163        -1.74767
C         46.40859        29.59075        -1.46870
C         47.64900        31.63428        -0.78962
C         46.41520        30.96216        -0.93454
C         47.63698        33.01583        -0.43243
C         46.38125        33.67769        -0.29602
C         47.65035        35.87015        -0.09124
C         46.37615        35.13027        -0.04531
C         47.64656        37.29462        -0.04090
C         46.44367        38.02983        -0.26079
C         47.65485        40.13469         0.08152
C         46.43525        39.43076        -0.21350
C         47.62412        41.56974         0.30717
C         46.42169        42.25139         0.19767
C         47.60110        44.40458         0.96203
C         46.31235        43.62189         0.69887
C         47.58660        45.88072         0.78189
C         46.43561        46.57069         0.48518
C         47.68597        48.74908         0.63038
C         46.51136        48.01021         0.02750
C         47.69858        50.14116         0.67905
C         46.50463        50.89212         0.22830
C         47.61293        53.03102         1.11657
C         46.45486        52.42911         0.44869
C         47.44855        54.31042         1.65901
C         46.23065        54.99143         1.58855
C         50.34738        20.38394         0.81065
C         49.05292        20.97134         0.53624
C         50.22298        23.09382        -0.11080
C         49.01973        22.34308         0.09897
C         50.18222        24.31425        -0.81502
C         48.95854        24.64270        -1.41814
C         50.19891        27.41996        -1.53069
C         48.95049        26.83953        -1.98598
C         50.19093        28.85282        -1.32232
C         48.96915        29.59571        -1.36238
C         50.13242        31.63218        -0.67332
C         48.91391        30.94575        -0.95945
C         50.11072        33.01441        -0.31126
C         48.86496        33.71820        -0.22787
C         50.06777        35.85040         0.22686
C         48.85479        35.14703        -0.03060
C         50.08699        37.25086         0.32357
C         48.87414        37.99544         0.16461
C         50.12281        40.13078         0.38387
C         48.86604        39.42273         0.22962
C         50.10844        41.58414         0.49043
C         48.86429        42.28048         0.58873
C         50.08443        44.41245         0.89586
C         48.87297        43.68494         0.77033
C         50.06710        45.85347         1.05451
C         48.86120        46.57792         0.90013
C         50.07270        48.69991         1.25966
C         48.87042        48.00501         0.93208
C         50.07526        50.13949         1.34585
C         48.87590        50.86199         1.07405
C         50.04586        52.95464         1.56615
C         48.84345        52.28740         1.23369
C         51.50196        21.08804         0.71233
C         52.77459        23.17664        -0.17771
C         51.51506        22.50689         0.31215
C         52.69935        24.46650        -0.95478
C         51.38836        25.13699        -1.20830
C         52.61477        27.36358        -1.11303
C         51.37319        26.65544        -1.29991
C         52.63569        28.79992        -1.06871
C         51.40332        29.53690        -1.07325
C         52.59103        31.67305        -0.64158
C         51.38008        30.95433        -0.80257
C         52.58057        33.02351        -0.22121
C         51.33555        33.67271        -0.02995
C         52.58682        35.80455         0.65211
C         51.28720        35.06150         0.45548
C         52.54928        37.27678         0.61963
C         51.34358        37.95991         0.51226
C         52.60502        40.10386         0.36544
C         51.31326        39.40770         0.47144
C         52.59664        41.64106         0.37698
C         51.31210        42.31871         0.59369
C         52.56456        44.42704         1.05347
C         51.31946        43.71521         0.85401
C         52.54391        45.82384         1.35299
C         51.28653        46.54881         1.33273
C         52.44103        48.66646         2.00420
C         51.25250        47.95380         1.51285
C         52.49548        50.13085         1.94227
C         51.27358        50.85026         1.67220
C         51.22808        52.26213         1.74784
C         55.15970        23.11576        -0.72214
C         54.05063        22.44457        -0.34374
C         55.16670        24.56427        -0.89719
C         53.95234        25.25846        -0.94196
C         55.10822        27.40935        -1.01827
C         53.88469        26.67868        -1.02971
C         55.09449        28.84391        -1.00742
C         53.86470        29.51958        -0.99563
C         55.11112        31.71922        -0.71139
C         53.84981        31.02666        -1.15359
C         55.08801        33.06678        -0.32067
C         53.83789        33.75404        -0.04849
C         55.07784        35.84499         0.42043
C         53.84831        35.09798         0.33064
C         55.08931        37.23797         0.63091
C         53.82362        37.96445         1.04243
C         55.04177        40.13581         0.77915
C         53.85285        39.42622         0.69681
C         55.01860        41.58073         0.85670
C         53.84114        42.31641         0.75541
C         55.03401        44.44231         1.18200
C         53.80451        43.73250         1.02033
C         55.01617        45.84887         1.41678
C         53.77195        46.50365         1.56723
C         55.02540        48.67723         1.98512
C         53.78153        47.89772         2.03090
C         54.94445        50.05477         2.18056
C         53.72198        50.75653         2.16186
C         57.65782        24.62378        -1.09083
C         56.39939        25.28884        -1.01362
C         57.58391        27.44693        -1.13037
C         56.35843        26.71201        -1.05161
C         57.57512        28.87914        -1.09605
C         56.34061        29.58129        -1.00370
C         57.58906        31.68704        -0.79001
C         56.34800        30.99875        -0.85065
C         57.62676        33.19134        -0.63647
C         56.32217        33.79124        -0.14088
C         57.57687        35.86141         0.46524
C         56.31144        35.12114         0.24587
C         57.55129        37.33159         0.36062
C         56.30733        37.99547         0.56407
C         57.53759        40.11309         0.70875
C         56.30991        39.41446         0.74328
C         57.58715        41.52717         1.11563
C         56.24608        42.28446         1.24226
C         57.50708        44.42965         1.27308
C         56.27419        43.74464         1.19206
C         57.49361        45.85926         1.42051
C         56.26038        46.56458         1.55240
C         57.51578        48.65644         1.79394
C         56.27124        47.97580         1.76776
C         58.83042        25.33192        -1.20249
C         60.03876        27.48879        -1.29080
C         58.81970        26.75342        -1.21280
C         60.03400        28.85988        -1.24263
C         58.81278        29.59099        -1.12430
C         60.04660        31.77924        -0.95010
C         58.80199        31.01229        -0.97558
C         60.09519        33.00921        -0.40950
C         58.85181        33.60071         0.21681
C         60.04442        35.94973        -0.03815
C         58.89516        35.13306         0.39082
C         59.97315        37.30404        -0.07350
C         58.75918        38.03804         0.22191
C         59.93582        40.26195         0.22766
C         58.75477        39.46668         0.36725
C         59.94066        41.62849         0.42650
C         58.79091        42.32694         0.88375
C         59.96812        44.50090         1.13348
C         58.76050        43.73196         1.11560
C         59.95454        45.86044         1.31193
C         58.72470        46.57350         1.45891
C         58.70933        47.97785         1.63760
O         30.56553        32.77067         1.71034
O         36.28505        38.83450        -2.92024
O         46.82215        43.82933         2.05540
O         56.93885        41.74515         2.41270
O         42.95756        33.25813         0.65300
O         39.98777        53.52223         1.04857
O         46.77166        51.81562        -0.86369
O         41.11944        44.29648        -2.32934
O         30.10305        25.08835         3.20312
O         30.06000        29.02012        -0.60316
O         52.33262        23.35931         1.21347
O         38.52230        40.22175        -2.87123
O         41.86777        50.54324         1.14563
O         39.47416        26.20217         1.21440
O         38.80746        29.91741        -2.59071
O         42.97234        54.27680        -0.91870
O         52.10210        24.42771        -2.29669
O         29.69530        44.25216        -2.52394
O         45.28823        24.28602         0.44873
O         49.00217        25.53878        -2.48484
O         26.19533        43.11612        -2.04144
O         27.09521        47.02167         1.59272
O         43.87089        25.55905        -2.74838
O         35.52219        31.02428        -2.22481
O         35.78781        28.51975         1.56022
O         46.53633        25.50671        -2.72128
O         45.54326        35.62330         1.08956
O         38.14354        46.38730         0.44301
O         44.69698        45.19084         1.63643
O         58.33583        35.48871         1.69974
O         26.72285        30.07428        -0.94446
O         52.98575        48.10666         3.24197
O         46.90737        29.57426        -2.83400
O         51.86681        35.22868         1.81097
O         52.68895        40.90013        -0.87979
O         37.32301        52.95255        -2.50303
O         34.74231        41.99716         0.48087
O         42.70087        23.18649        -1.81550
O         27.56515        45.76070        -1.93654
O         39.69342        35.47043        -2.96314
O         38.53483        55.58679        -2.55872
H         38.02134        55.18762        -3.29386
O         31.49069        47.29403        -2.49290
H         31.17469        46.55242        -3.05280
O         46.78977        47.93520        -1.42110
H         46.89812        48.85453        -1.74824
O         36.82517        46.58322        -2.98224
H         36.19174        47.18697        -3.42706
O         45.64648        41.90343        -2.00803
H         44.90900        41.56886        -2.56297
O         37.83893        41.16906         0.55249
H         37.54826        41.92214         1.11042
O         45.56363        37.07444        -2.24206
H         45.45321        37.92856        -2.71149
O         57.84525        33.77198        -1.95806
H         57.14495        33.43290        -2.55482
O         29.31103        27.54887         3.20053
H         29.85915        26.94395         3.75516
O         53.81302        31.25015        -2.62397
H         53.02592        30.77502        -2.96830
O         41.52526        17.40293        -0.73626
H         41.53524        18.13516        -1.38752
O         45.41753        28.45575         0.33751
H         44.56522        28.14067         0.70576
O         32.42873        32.80423        -2.16345
H         33.17276        32.29036        -2.54737
O         53.79873        37.90353         2.51729
H         53.59014        36.97821         2.77219
O         58.71753        32.99758         1.51652
H         58.42709        33.71197         2.13452
O         31.97057        47.50495         1.12311
H         32.05040        48.26253         1.73968
O         41.87287        38.16998        -3.08355
H         41.07579        38.53239        -3.52800
O         35.21305        44.36185        -2.97124
H         35.93259        44.93827        -3.33302
O         31.83205        29.92002         2.49974
H         32.59813        30.49265         2.71305
O         41.66792        17.38037         2.92385
H         41.68536        16.63838         3.56277
H         22.13026        26.92958         1.48589
H         22.08080        29.30995         0.90133
H         22.06796        31.17346         0.61945
H         22.03832        33.58946         0.49090
H         22.03493        35.47932         0.58000
H         22.01231        37.89964         0.45320
H         22.00287        39.77668         0.41443
H         21.98498        42.19700         0.30100
H         22.02863        44.07854         0.53999
H         22.15087        46.49260         0.98036
H         25.55072        23.69876         2.28374
H         23.40158        24.87466         2.04387
H         25.49910        49.85328         0.92075
H         23.41627        48.59138         1.06312
H         27.17361        22.73538         1.83182
H         27.20248        50.78815         0.65349
H         29.24837        21.51050         1.69877
H         29.29094        52.01323         0.36540
H         32.94020        19.30145         1.29741
H         30.86352        20.53422         1.53655
H         33.01518        54.16734        -0.09694
H         30.96878        52.92546         0.35716
H         34.55405        18.37326         1.44447
H         34.58054        55.15326        -0.94031
H         36.63977        17.13997         1.40824
H         36.52903        56.39874        -1.06285
H         40.32933        14.95579         1.64087
H         38.23994        16.12483         1.13947
H         39.66007        57.83989         2.11448
H         37.96461        57.14849         0.45398
H         42.84890        14.92136         1.56707
H         42.16689        57.62895         2.98660
H         44.94815        16.02600         0.95666
H         44.33353        56.49427         2.85174
H         48.74098        18.24126         1.04206
H         46.64607        17.03768         1.18051
H         48.28589        54.79977         2.17502
H         46.17825        55.99402         2.03492
H         50.39409        19.33480         1.13446
H         50.05510        54.04926         1.65391
H         52.45648        20.61805         0.98755
H         52.13722        52.82871         1.98717
H         56.09980        22.56020        -0.83717
H         54.09196        21.36442        -0.14427
H         55.86361        50.65207         2.25058
H         53.77467        51.85244         2.21553
H         57.70210        23.52726        -1.07604
H         57.54115        49.74341         1.94751
H         59.79241        24.80409        -1.27111
H         60.98769        26.93896        -1.36889
H         60.99066        29.39692        -1.27840
H         60.96515        31.32487        -1.34715
H         61.06096        33.52660        -0.32347
H         60.97321        35.45724        -0.35645
H         60.86847        37.86635        -0.37300
H         60.87382        39.78082        -0.07978
H         60.87455        42.17892         0.24722
H         60.93383        43.98709         1.03363
H         60.89911        46.42237         1.34524
H         59.66194        48.52618         1.66217
