         228
 CSIRO Nanostructure Databank - Neutral Graphene Oxide Data Set
C        -10.79835         0.62232        -0.98568
C         -9.61913         1.44613        -0.67672
C         -8.44739         0.71816        -0.01394
C         -7.50207         1.51606         0.85707
C         -6.14186         0.80561         0.81261
C         -4.96507         1.45650         0.63745
C         -3.68329         0.73688         0.84561
C         -2.38885         1.45086         0.59277
C         -1.18894         0.64512         0.24488
C         -0.00820         1.43465        -0.26105
C          1.29698         0.69008        -0.22419
C          2.54215         1.45511        -0.16554
C          3.77717         0.76244        -0.21282
C          5.02580         1.41431         0.04935
C          6.25814         0.69094         0.00588
C          7.47933         1.36100         0.16141
C          8.72441         0.61038         0.24892
C          9.93185         1.35348         0.53096
C         11.13197         0.61250         0.82795
C         -9.72433         2.91425        -0.51756
C         -8.66698         3.66985        -0.10077
C         -7.43324         3.05936         0.55933
C         -6.19166         3.54683        -0.18581
C         -4.91386         2.83802         0.08224
C         -3.67638         3.65785         0.39888
C         -2.39797         2.89431         0.24220
C         -1.22370         3.58481         0.15992
C          0.02100         2.81414         0.34656
C          1.30026         3.55934         0.43667
C          2.53634         2.81107         0.16727
C          3.77052         3.48327         0.53620
C          5.04529         2.79753         0.35531
C          6.26960         3.52375         0.40842
C          7.49404         2.79112         0.29997
C          8.72982         3.50294         0.40468
C          9.93742         2.74428         0.53475
C         -8.63009         5.12314        -0.12564
C         -7.42721         5.80921        -0.16513
C         -6.18062         5.03649        -0.42071
C         -4.86898         5.76385        -0.44354
C         -3.60843         5.03910        -0.20532
C         -2.41369         5.71485        -0.29228
C         -1.15602         5.01081        -0.07631
C          0.06185         5.67616        -0.15635
C          1.30298         5.02141         0.18858
C          2.52072         5.67809         0.20038
C          3.72757         5.00291         0.71942
C          5.04826         5.75035         0.88996
C          6.27980         4.94444         0.51283
C          7.50728         5.64821         0.46043
C          8.71932         4.91247         0.43368
C         -7.31196         7.24249        -0.08369
C         -6.10304         7.92698        -0.13982
C         -4.84536         7.23089        -0.30188
C         -3.63620         7.89480        -0.37999
C         -2.38777         7.16909        -0.45198
C         -1.17632         7.84446        -0.50191
C          0.06289         7.04525        -0.82646
C          1.38550         7.80341        -0.67776
C          2.63367         7.07230        -0.26214
C          3.87666         7.82147         0.03259
C          5.04539         7.14833         0.31991
C          6.31973         7.82853         0.30612
C          7.49746         7.09450         0.42254
C         -6.01141         9.36773         0.07925
C         -4.85061        10.04606        -0.06172
C         -3.61722         9.38284        -0.62104
C         -2.28947        10.01629        -0.28857
C         -1.11721         9.29367        -0.38903
C          0.17975         9.94608        -0.33531
C          1.38016         9.27431        -0.46889
C          2.65651         9.93065        -0.37291
C          3.86195         9.25029        -0.19353
C          5.13115         9.93438        -0.11553
C          6.30011         9.25738         0.09636
C        -10.73315        -0.73036        -0.93176
C         -9.59331        -1.44630        -0.37313
C         -8.55516        -0.72044         0.26242
C         -7.48020        -1.42469         0.98671
C         -6.15132        -0.64500         1.13990
C         -4.88230        -1.40669         0.98296
C         -3.70313        -0.74473         0.81576
C         -2.36798        -1.50703         0.79038
C         -1.17638        -0.70421         0.28225
C          0.11912        -1.48695         0.11645
C          1.29336        -0.66135        -0.37927
C          2.46290        -1.29697        -1.10885
C          3.77932        -0.58197        -0.81562
C          5.06383        -1.32562        -0.88943
C          6.20283        -0.81831        -0.01439
C          7.52935        -1.47073        -0.33585
C          8.75563        -0.79035         0.09126
C          9.95208        -1.51950         0.49788
C         11.11228        -0.74685         0.88544
C         -9.58334        -2.85214        -0.39390
C         -8.55562        -3.63016         0.20724
C         -7.52706        -2.96228         1.10887
C         -6.17662        -3.65886         0.95584
C         -4.85907        -2.92219         1.15871
C         -3.80210        -3.52904         0.23047
C         -2.54173        -2.77491        -0.05305
C         -1.33855        -3.52190        -0.56186
C         -0.03056        -2.78407        -0.67736
C          1.21186        -3.50961        -1.08972
C          2.53373        -2.81825        -0.97447
C          3.70034        -3.49769        -1.13633
C          5.00195        -2.78618        -1.25771
C          6.31547        -3.49591        -1.32767
C          7.51447        -2.68829        -0.96652
C          9.03901        -3.78652         0.10790
C          9.98618        -2.89834         0.72851
C         -8.52935        -5.00003         0.09423
C         -7.48067        -5.79826         0.83193
C         -6.16902        -5.02006         0.78835
C         -4.93480        -5.77763         0.63998
C         -3.73769        -5.03163         0.19435
C         -2.43207        -5.67749         0.03632
C         -1.29531        -5.00719        -0.43519
C         -0.03553        -5.69163        -0.57790
C          1.14632        -5.02747        -1.28465
C          2.47770        -5.71103        -1.01333
C          3.71461        -4.97434        -1.31947
C          5.05779        -5.73541        -1.32890
C          6.49305        -5.04642        -1.28170
C          7.31073        -5.60209        -0.08670
C          8.35651        -4.86197         0.62130
C         -7.36207        -7.23365         0.38326
C         -6.16858        -7.90048         0.41050
C         -4.93061        -7.15286         0.56530
C         -3.64004        -7.86688         0.66873
C         -2.34043        -7.06175         0.51052
C         -1.04707        -7.78111         0.33681
C          0.08354        -7.06417        -0.28031
C          1.29861        -7.78495        -0.46560
C          2.52021        -7.07843        -0.77441
C          3.79530        -7.78846        -0.69888
C          4.99983        -7.14784        -0.90326
C          6.33418        -7.83672        -0.69353
C          7.18780        -6.93357         0.17950
C         -6.05428        -9.33317         0.17647
C         -4.86042        -9.98348         0.15783
C         -3.58506        -9.31495         0.36617
C         -2.39686        -9.97170         0.18063
C         -1.07888        -9.31788         0.25570
C          0.13249        -9.95476        -0.25349
C          1.31411        -9.22468        -0.36516
C          2.58703        -9.90400        -0.36407
C          3.77338        -9.21410        -0.39203
C          5.03082        -9.88128        -0.09515
C          6.20700        -9.22968        -0.14298
O          2.31904         7.31618        -1.70283
O         -2.88525         1.26177         1.97900
O         -7.31356         3.71542         1.80501
O         -0.08747         6.74360        -2.25028
H          0.82402         6.63143        -2.61126
O         -8.01760         1.40043         2.18735
H         -7.80511         2.28741         2.60446
O          0.49106        -1.90843         1.46009
H         -0.36888        -1.95589         1.99118
O          4.35476        -5.45103        -2.55181
O          0.61623         3.01384         1.65035
O         -4.42075        -3.17108         2.51274
H         -3.52377        -2.71541         2.61301
O          5.20158         5.98724         2.32941
H          4.82363         5.19968         2.78675
O          7.00037        -7.99487        -1.96969
H          7.14663        -7.07752        -2.35730
O          8.70904        -3.35724        -1.20455
O         -0.23441         1.69290        -1.68376
H         -0.13668         0.84702        -2.17321
O         -5.56925         5.37391        -1.70304
O         -7.99752        -3.22134         2.46517
H         -7.49343        -2.61032         3.05491
O         -4.24147        -4.20286        -0.95754
O         -7.91253        -5.89663         2.22183
H         -7.96613        -4.97073         2.58045
O         -2.06566        -1.96742         2.09994
O         -7.00775        -0.91701         2.27776
O          3.52370         4.14165         1.86763
O         -3.78499         3.91106         1.84394
H         -3.56688         3.06121         2.30348
O          2.17811        -1.03061        -2.50941
H          3.03850        -1.07599        -2.98884
O         -3.72377         9.54744        -2.08934
H         -3.03304         8.98022        -2.49560
O          5.82311        -1.25112         1.33699
H          6.47453        -0.87768         1.96792
O          0.88430        -5.26601        -2.69845
H          0.45773        -4.44458        -3.04468
O          5.66741        -3.03279        -2.54466
O         -0.74020        -8.58645         1.49907
O          7.14947        -5.41741        -2.43990
O         -8.42790         1.02550        -1.43806
O         -5.53805         2.82026        -1.25648
O          4.67977        -0.49845        -2.01288
O          0.38540        -2.78073        -2.07146
O         -2.90914        -7.35021         1.82378
O         -2.26461        -2.82218        -1.47694
H         12.01872        -1.29808         1.17548
H         12.05026         1.16870         1.06529
H         10.88434         3.27863         0.70282
H          9.67624         5.45491         0.46143
H          8.46437         7.61918         0.38940
H          7.25529         9.80278         0.11393
H          5.14680        11.02455        -0.26192
H          2.67177        11.03126        -0.40472
H          0.19443        11.03507        -0.17409
H         -2.24293        11.11314        -0.20070
H         -4.82000        11.13104         0.12087
H         -6.92068         9.89507         0.40690
H         -8.23507         7.82070         0.08048
H         -9.57896         5.68340        -0.14547
H        -10.64985         3.39811        -0.86828
H        -11.72684         1.12327        -1.29661
H        -11.60035        -1.33426        -1.23718
H        -10.39042        -3.37848        -0.92699
H         -9.30187        -5.51603        -0.49835
H         -8.29600        -7.78971         0.20895
H         -6.98301        -9.89958         0.01379
H         -4.83517       -11.06753        -0.02873
H         -2.41635       -11.02929        -0.12568
H          0.15206       -11.04726        -0.38562
H          2.59207       -10.98979        -0.18902
H          4.98510       -10.93182         0.22997
H          7.14131        -9.75138         0.11246
H          7.84148        -7.39782         0.93626
H          8.66212        -5.25539         1.60356
H         10.79051        -3.30673         1.36115
