         410
 CSIRO Nanostructure Databank - Neutral Graphene Oxide Data Set
C         27.88336        27.28496         0.07669
C         27.83914        28.72175        -0.00043
C         26.66217        29.45170         0.12499
C         27.86854        31.60018         0.00839
C         26.67249        30.85580         0.08469
C         27.88146        33.04476         0.08610
C         26.64557        33.79828        -0.00459
C         27.83902        35.93178         0.07055
C         26.63560        35.15859        -0.08884
C         27.85305        37.31595        -0.00078
C         26.67635        38.08924        -0.36181
C         27.74428        40.21165         0.41624
C         26.62724        39.42709        -0.21959
C         27.80261        41.66474        -0.05672
C         26.61406        42.37233        -0.38203
C         27.83857        44.47102        -0.52596
C         26.62964        43.73293        -0.61346
C         27.87872        45.87602        -0.75596
C         30.32687        27.30407         0.44485
C         29.04333        26.59640         0.27067
C         30.40133        28.69625        -0.08896
C         29.09032        29.45343        -0.24573
C         30.34607        31.60343        -0.03213
C         29.11946        30.91604        -0.09383
C         30.35026        33.03933         0.10875
C         29.09279        33.72744         0.18701
C         30.35007        35.92315         0.29078
C         29.06260        35.19078         0.56083
C         30.32596        37.34864         0.30022
C         29.08380        38.06213         0.23347
C         30.28375        40.18126         0.47856
C         29.06978        39.46573         0.31806
C         30.20937        41.66634         0.54010
C         29.00255        42.37001         0.03115
C         30.26229        44.53966        -0.15472
C         29.04583        43.78772        -0.19993
C         30.29877        45.92250        -0.41391
C         29.06159        46.57715        -0.69360
C         32.88870        24.46168         0.51638
C         31.72696        25.12362         0.72989
C         32.90133        27.31451         0.31746
C         31.66081        26.58944         0.66819
C         32.86692        28.75181         0.19634
C         31.64063        29.46858         0.09583
C         32.83182        31.61111        -0.05718
C         31.60393        30.88084        -0.00590
C         32.82253        33.06907        -0.02190
C         31.57075        33.76130         0.13649
C         32.79783        35.94433         0.28041
C         31.56338        35.21450         0.23700
C         32.76937        37.34926         0.42873
C         31.54837        38.07524         0.39066
C         32.78956        40.23196         0.61542
C         31.53075        39.51202         0.49584
C         32.77605        41.70186         0.80243
C         31.48062        42.43834         0.62913
C         32.82529        44.55290        -0.03731
C         31.52525        43.79105        -0.00628
C         32.79450        46.01214        -0.17554
C         31.56781        46.66974        -0.38535
C         32.81206        48.78254        -0.51534
C         31.61479        48.08443        -0.52943
C         35.41399        23.02279         0.02289
C         35.31929        24.45370        -0.00880
C         34.12924        25.14876         0.21662
C         35.33828        27.32814         0.01379
C         34.09674        26.60521         0.15178
C         35.33253        28.74952         0.01284
C         34.08388        29.47178         0.03748
C         35.27898        31.58763        -0.48291
C         34.04089        30.88202        -0.12639
C         35.28413        33.09647        -0.40362
C         34.02478        33.79808        -0.07117
C         35.25823        35.93303        -0.00371
C         34.05392        35.23045         0.11008
C         35.31104        37.35125         0.38835
C         34.01791        38.09391         0.65233
C         35.28289        40.28971         0.61691
C         34.01145        39.57466         0.61719
C         35.32539        41.70689         0.56137
C         34.07035        42.46520         0.70361
C         35.26241        44.61342         0.31345
C         34.07124        43.90254         0.36901
C         35.24759        46.02728         0.15561
C         34.03514        46.72478        -0.07821
C         35.32445        48.83773        -0.41132
C         34.05727        48.13939        -0.31182
C         35.37833        50.17334        -0.89211
C         37.84388        23.06308        -0.40199
C         36.58984        22.36406        -0.21793
C         37.84195        24.46097        -0.37050
C         36.53252        25.19637        -0.52603
C         37.79952        27.32187         0.01369
C         36.57002        26.63832        -0.10576
C         37.80124        28.75717         0.06856
C         36.57393        29.43384        -0.07215
C         37.87192        31.63531        -0.14103
C         36.58271        30.85921        -0.40384
C         37.75325        33.08636         0.09543
C         36.57538        33.75550        -0.09607
C         37.83450        35.98183        -0.12766
C         36.54203        35.23242        -0.22104
C         37.83863        37.47659        -0.04998
C         36.51601        38.18007         0.10529
C         37.75205        40.28910         0.46717
C         36.51474        39.60020         0.48774
C         37.76275        41.70994         0.46639
C         36.53639        42.40670         0.43774
C         37.80408        44.60719         0.26014
C         36.52725        43.85066        -0.00026
C         37.77852        45.98477         0.25479
C         36.50703        46.78829         0.50047
C         37.77063        48.90311        -0.16777
C         36.55380        48.19795        -0.07530
C         37.82010        50.21215        -0.75438
C         36.57705        50.82347        -1.08321
C         40.40418        20.26828        -0.69991
C         39.17189        20.95117        -0.64678
C         40.29409        23.13869        -0.85365
C         39.08214        22.34305        -0.60320
C         40.32617        24.55620        -0.47550
C         39.07126        25.21163        -0.30335
C         40.29907        27.27763         0.29335
C         39.03828        26.59942        -0.03701
C         40.28252        28.77129         0.56387
C         39.02329        29.50763         0.28924
C         40.23917        31.59991         0.91650
C         39.03889        30.88361         0.33611
C         40.26868        33.08692         0.64053
C         38.97235        33.79148         0.57905
C         40.29431        35.99574         0.52395
C         39.00548        35.28381         0.47853
C         40.28524        37.41740         0.54645
C         39.06265        38.17325         0.36577
C         40.22675        40.31304         0.67133
C         39.01014        39.56606         0.49037
C         40.24370        41.69563         0.55436
C         39.01528        42.44180         0.42483
C         40.31598        44.54682         0.15599
C         39.02733        43.83684         0.31514
C         40.31288        46.04530         0.09772
C         39.03419        46.74950         0.38693
C         40.35850        48.93853         0.05810
C         39.03460        48.24454         0.25171
C         40.34647        50.32430        -0.58540
C         39.06270        50.86893        -1.06146
C         40.31879        52.66368        -2.16357
C         39.12235        52.05086        -1.84100
C         42.88168        20.28760        -0.54089
C         41.62600        20.94125        -0.72195
C         42.87632        23.14498        -0.66006
C         41.64409        22.39167        -0.93041
C         42.83095        24.55878        -0.52616
C         41.56727        25.25336        -0.39297
C         42.78679        27.37581         0.01191
C         41.57954        26.63279        -0.04437
C         42.78108        28.79992         0.25195
C         41.55859        29.51407         0.44539
C         42.74938        31.65742         0.57069
C         41.53987        30.90688         0.57240
C         42.73009        33.08566         0.69401
C         41.45776        33.79680         0.69407
C         42.71404        35.96565         0.84715
C         41.48342        35.26073         0.68676
C         42.71003        37.38855         0.95869
C         41.48940        38.09419         0.83866
C         42.74284        40.26136         1.25506
C         41.44132        39.54892         1.04970
C         42.80111        41.69807         0.85016
C         41.54174        42.41293         0.51671
C         42.77965        44.59372         0.60470
C         41.57748        43.88194         0.49315
C         42.77476        46.02770         0.41807
C         41.59769        46.76442         0.23236
C         42.84572        48.80701        -0.35419
C         41.61262        48.17077         0.02108
C         42.83682        50.14643        -0.95071
C         41.61363        50.83512        -1.14413
C         42.80280        52.67444        -2.22636
C         41.58205        52.06821        -1.84402
C         44.05887        20.99629        -0.52065
C         45.32882        23.16955        -0.54647
C         44.09281        22.43289        -0.56595
C         45.30344        24.59153        -0.49787
C         44.05096        25.28541        -0.40842
C         45.25662        27.43372        -0.19488
C         44.03221        26.70171        -0.21563
C         45.23337        28.82341         0.06957
C         44.01092        29.52147         0.27478
C         45.19331        31.70497         0.47838
C         43.99606        30.95812         0.45826
C         45.18880        33.11675         0.59581
C         43.94294        33.81324         0.72683
C         45.17947        35.94068         1.00448
C         43.95530        35.24484         0.87812
C         45.19632        37.37067         1.11835
C         43.96484        38.10326         1.10537
C         45.23748        40.23505         1.09480
C         44.00393        39.50390         1.16870
C         45.24196        41.64348         1.04376
C         44.00531        42.46673         1.34034
C         45.26600        44.53373         0.69041
C         44.04169        43.89389         0.82391
C         45.33785        46.00423         0.54855
C         44.03882        46.77954         0.44693
C         45.29710        48.56684        -0.80986
C         44.04210        48.09503        -0.21568
C         45.31376        49.98325        -1.39593
C         44.04522        50.75550        -1.38702
C         44.00733        52.03933        -1.97122
C         47.76089        23.22124        -0.72804
C         46.58888        22.51074        -0.62654
C         47.77059        24.64493        -0.70806
C         46.53198        25.33062        -0.53313
C         47.73805        27.47707        -0.48792
C         46.51728        26.75268        -0.40044
C         47.75260        28.90109        -0.32049
C         46.51657        29.52691         0.20537
C         47.67548        31.80250         0.05986
C         46.49158        31.02172         0.41177
C         47.66139        33.18085         0.26311
C         46.42228        33.84085         0.59428
C         47.66409        35.92633         0.91829
C         46.42929        35.23252         0.85646
C         47.65687        37.28104         1.57828
C         46.42222        38.07498         1.23006
C         47.73872        40.15704         1.32243
C         46.47432        39.47713         1.16706
C         47.79846        41.55901         0.88238
C         46.46042        42.34202         0.68226
C         47.74781        44.45843         0.53800
C         46.51196        43.80883         0.67844
C         47.79595        45.87218         0.17881
C         46.58872        46.60509         0.04819
C         47.79844        48.52074        -0.90178
C         46.58743        47.90712        -0.49683
C         47.77911        49.90965        -1.30275
C         46.63213        50.62836        -1.44728
C         50.22576        24.75031        -1.17220
C         48.98778        25.38949        -0.87976
C         50.16603        27.57044        -0.97789
C         48.96713        26.81065        -0.78509
C         50.13491        29.00859        -0.90864
C         48.89593        29.65342        -0.55524
C         50.09566        31.90805        -0.55049
C         48.79762        31.15843        -0.69331
C         50.10234        33.23947        -0.21967
C         48.88392        33.93915         0.16228
C         50.12538        36.08302         0.61492
C         48.86532        35.30402         0.53235
C         50.15182        37.35520         1.39485
C         48.96167        38.04418         1.52339
C         50.15612        40.24049         1.96424
C         48.91637        39.47997         1.67588
C         50.20239        41.73388         1.61265
C         48.99104        42.37032         1.05083
C         50.25804        44.45349         0.74726
C         48.97549        43.72327         0.73960
C         50.29442        45.86668         0.19813
C         49.01402        46.50440        -0.16255
C         50.29124        48.30738        -1.19593
C         49.03380        47.79906        -0.74470
C         51.37192        25.47815        -1.38210
C         52.57946        27.66230        -1.50969
C         51.37921        26.90174        -1.29882
C         52.54393        29.08290        -1.37985
C         51.31455        29.75315        -1.13003
C         52.60214        31.91448        -0.86956
C         51.28620        31.26728        -1.23603
C         52.63397        33.23519        -0.42948
C         51.35451        34.04632        -0.52504
C         52.62702        35.84955         0.88679
C         51.38819        35.41878         0.17189
C         52.69856        37.19498         1.48476
C         51.45188        37.96997         1.80503
C         52.70506        40.33052         2.20133
C         51.44976        39.46755         2.15130
C         52.73897        41.72906         1.64898
C         51.48038        42.38576         1.26366
C         52.75003        44.29145         0.35075
C         51.50999        43.66377         0.74343
C         52.76226        45.59929        -0.22104
C         51.55071        46.36317        -0.38061
C         51.47609        47.58946        -1.07435
C         54.96844        27.74884        -2.01711
C         53.81041        27.02895        -1.86063
C         54.98528        29.15445        -1.77656
C         53.77868        29.82244        -1.46539
C         55.06427        31.90259        -1.06371
C         53.81744        31.21529        -1.12507
C         55.09438        33.24707        -0.55858
C         53.88658        33.86298        -0.18481
C         55.20363        35.80832         0.80459
C         53.92890        35.08838         0.63923
C         55.19838        37.01630         1.51310
C         53.93799        37.50573         2.01042
C         55.18136        40.13261         1.68374
C         54.02124        39.67602         2.25716
C         55.18369        41.47730         1.09093
C         53.99848        42.24629         1.06832
C         55.18191        44.07664        -0.06381
C         53.96937        43.53351         0.45182
C         55.17231        45.39073        -0.61947
C         54.01375        46.12352        -0.68112
C         56.21097        29.88462        -1.80705
C         56.25140        31.20964        -1.45099
C         56.32274        33.99002        -0.39534
C         56.36485        35.22260         0.20003
C         56.36040        37.89163         1.64049
C         56.35667        39.25825         1.68816
C         56.36447        42.03074         0.52531
C         56.36851        43.30159        -0.01406
O         34.83282        37.56184         1.76450
O         38.68104        34.64066         1.76486
O         40.42873        50.14669         0.88102
O         50.34783        45.59053         1.66105
O         40.25412        27.83797         1.68130
O         30.64067        42.30292         1.81428
O         35.18580        32.39849        -1.69501
O         46.72502        30.08964         1.55822
O         50.79553        36.42702        -0.70530
O         45.18654        48.80834        -2.26539
O         53.11359        34.85522         1.85337
O         54.04366        38.49609         2.99429
O         42.48280        41.87421        -0.54975
O         40.31304        45.28676        -1.15033
O         51.37244        38.46111         3.19505
O         52.70844        41.47723         3.12012
O         32.29674        43.80369        -1.24589
O         47.18386        41.73559        -0.43638
O         37.13356        38.03462        -1.20971
O         50.00482        41.27444         2.99483
O         29.82491        28.89661        -1.40990
O         37.48007        31.20623        -1.49390
O         36.44893        43.78857        -1.42391
O         44.78726        46.71206         1.72630
O         37.36907        35.54688        -1.43430
O         41.91664        39.94956         2.41251
O         40.94417        22.84498        -2.13455
O         33.44632        42.17051         2.02223
O         39.03352        47.60295         1.59126
O         30.90715        27.20133         1.78510
O         36.32715        25.25726        -1.99788
H         36.34317        24.33318        -2.32834
O         28.93956        35.18136         2.03873
H         28.87470        36.11632         2.33054
O         48.42343        31.34319        -2.12296
H         49.27408        31.31147        -2.63744
O         27.43402        40.29149         1.84675
H         28.14899        40.81009         2.27492
O         40.08111        31.48664         2.37365
H         40.81811        31.97689         2.79597
O         36.42821        46.95000         1.95905
H         37.29911        47.33149         2.23947
O         43.85671        42.56294         2.78972
H         44.57656        43.12843         3.14014
O         47.50774        36.97525         3.01558
H         47.55131        37.82269         3.50821
O         51.08487        31.56984        -2.67147
H         51.16712        32.55563        -2.75008
O         51.26261        34.30870        -1.96794
H         50.80252        35.18067        -2.05964
H         26.92931        26.73754         0.04253
H         25.70826        28.92412         0.26884
H         25.71082        31.37596         0.18040
H         25.69548        33.25861        -0.11066
H         25.68168        35.67272        -0.26973
H         25.80597        37.56487        -0.78088
H         25.70513        39.95237        -0.50364
H         25.65223        41.84460        -0.42146
H         25.69515        44.26161        -0.85022
H         26.94308        46.40012        -0.99896
H         29.01526        25.50546         0.40114
H         29.04609        47.65694        -0.89267
H         32.88909        23.36553         0.58573
H         30.81625        24.56919         0.99573
H         32.77458        49.87125        -0.65647
H         30.68594        48.65314        -0.67089
H         34.52102        22.42430         0.25085
H         34.45067        50.69885        -1.15457
H         36.58985        21.26625        -0.19985
H         36.55875        51.84457        -1.48519
H         40.40179        19.17094        -0.62723
H         38.26155        20.34387        -0.54935
H         40.31114        53.60650        -2.72842
H         38.19226        52.51860        -2.19079
H         42.89822        19.19286        -0.43716
H         42.78683        53.64222        -2.74680
H         44.99977        20.44140        -0.40966
H         44.94283        52.51296        -2.29957
H         48.70394        22.66706        -0.82103
H         46.63418        21.41413        -0.64826
H         48.73918        50.43618        -1.39834
H         46.69132        51.71582        -1.59739
H         50.27683        23.65650        -1.25034
H         50.32573        49.27730        -1.70997
H         52.29802        24.93708        -1.61516
H         52.38373        48.02229        -1.51727
H         55.90575        27.24119        -2.28625
H         53.84184        25.94247        -2.01405
H         56.11408        45.81524        -0.99612
H         54.05146        47.13700        -1.10204
H         57.13569        29.35768        -2.08323
H         57.21607        31.73443        -1.44991
H         57.26021        33.55845        -0.77105
H         57.32769        35.74536         0.28610
H         57.34636        37.40622         1.56590
H         57.34070        39.75188         1.65636
H         57.29423        41.44632         0.53267
H         57.29845        43.72284        -0.42237
