         720
 CSIRO Nanostructure Databank - Neutral Graphene Oxide Data Set
C         23.89101        28.56684        -4.25273
C         23.82366        29.83530        -3.75656
C         23.63609        32.49349        -2.53775
C         23.47251        33.70639        -1.94495
C         23.42949        36.65044        -1.41774
C         23.57104        37.97070        -1.66290
C         23.92658        40.93258        -2.10070
C         24.08444        42.32169        -2.13075
C         24.73546        45.22759        -2.54950
C         24.45919        46.47525        -2.16212
C         26.28018        25.67008        -4.43090
C         25.12919        26.43436        -4.56377
C         26.25364        28.36877        -3.57420
C         25.08877        27.77836        -4.13293
C         26.19154        29.71346        -3.02155
C         24.92805        30.43974        -3.04851
C         25.86795        32.05023        -1.36359
C         24.81171        31.67553        -2.40008
C         25.78875        33.53105        -0.90485
C         24.51715        34.30743        -1.09365
C         25.95745        36.27003        -1.53851
C         24.59870        35.83561        -0.90035
C         25.94700        37.71658        -1.93704
C         24.88980        38.57157        -1.86800
C         26.41247        40.69554        -1.49602
C         25.09499        40.04350        -2.01532
C         26.19230        42.05163        -0.91337
C         25.24262        42.91918        -1.64031
C         26.27051        44.91328        -0.54879
C         25.70881        44.33352        -1.83231
C         26.13402        46.28179        -0.28690
C         24.97813        47.05929        -0.87621
C         26.17080        49.11298        -0.14825
C         25.27503        48.52934        -0.97465
C         28.79945        24.10252        -4.18129
C         28.69621        25.45597        -3.71928
C         27.46439        26.23118        -3.89783
C         28.68926        28.23376        -3.09712
C         27.43315        27.58770        -3.49511
C         28.64321        29.67185        -2.62298
C         27.32601        30.31696        -2.47785
C         28.38746        32.16153        -1.26021
C         27.25382        31.56714        -1.75264
C         28.35022        33.49543        -0.63677
C         27.07714        34.26937        -0.55044
C         28.60654        36.32661        -1.05153
C         27.15695        35.82957        -0.59686
C         28.78365        37.82325        -0.84102
C         27.88930        38.68133        -1.47176
C         28.56331        40.55474        -0.12444
C         27.62191        39.98295        -1.00373
C         28.29615        41.83068         0.66179
C         27.08705        42.62551         0.13582
C         27.69390        44.71078         1.41547
C         27.02824        44.10678         0.33237
C         27.87087        46.10982         1.44234
C         27.01640        46.90353         0.63233
C         27.93293        48.98496         1.59783
C         27.02504        48.34862         0.74121
C         27.84063        50.40688         1.84836
C         31.05882        23.80030        -3.26937
C         29.93547        23.33871        -4.01898
C         30.91092        25.12560        -2.64872
C         29.79463        26.01064        -3.04332
C         30.95417        28.02407        -2.13046
C         29.83831        27.40616        -2.69540
C         30.94760        29.41845        -1.71141
C         29.78741        30.17279        -1.85463
C         30.83957        32.07100        -0.59816
C         29.77788        31.64242        -1.58116
C         30.78309        33.37057        -0.09416
C         29.64285        34.18947        -0.41922
C         30.75272        36.19335         0.42447
C         29.68544        35.55908        -0.31363
C         30.73670        37.57430         0.64776
C         29.74978        38.40940         0.01135
C         30.76211        40.47645         1.04758
C         29.70723        39.81242         0.26679
C         30.82102        41.85252         1.14944
C         29.58476        42.68753         0.82801
C         30.51697        44.60685         2.23539
C         29.50564        43.48589         2.15058
C         30.23714        46.01596         2.60581
C         28.93048        46.76011         2.25455
C         30.10336        48.91045         2.75351
C         28.99982        48.23916         2.22235
C         30.00619        50.36565         2.98054
C         28.78423        51.05588         2.56797
C         33.50934        20.96889        -3.45773
C         32.43027        21.75537        -3.68624
C         33.42037        23.69422        -2.50030
C         32.26780        23.08541        -3.11555
C         33.43735        25.03030        -2.10736
C         32.16549        25.76998        -2.06861
C         33.47205        27.89618        -1.55116
C         32.21366        27.25603        -2.06959
C         33.40234        29.32476        -1.10081
C         32.10670        30.01988        -1.07634
C         33.10151        31.83522         0.36092
C         32.02567        31.29019        -0.44775
C         32.97331        33.12878         0.95339
C         31.87266        33.94529         0.63421
C         32.90067        35.95721         1.59318
C         31.82178        35.36086         0.96015
C         32.84904        37.34575         2.06894
C         31.66043        38.20672         1.59468
C         32.81919        40.23601         2.43045
C         31.78559        39.66758         1.68690
C         32.61004        41.64430         3.06069
C         31.47105        42.47844         2.39363
C         32.74914        44.62605         3.33355
C         31.72276        43.99649         2.39931
C         32.64710        46.15328         3.23308
C         31.44014        46.82094         2.90617
C         32.57237        49.00969         3.11975
C         31.35938        48.23874         3.00890
C         32.57805        50.42537         2.85085
C         31.33129        51.18132         3.00703
C         32.44800        53.14194         2.07164
C         31.34040        52.59135         2.62232
C         36.03473        19.30546        -2.87038
C         35.79206        20.56732        -2.17329
C         34.57250        21.40928        -2.52471
C         35.90399        23.54908        -1.84077
C         34.68138        22.90647        -2.42412
C         35.82142        24.93523        -1.34431
C         34.61693        25.67759        -1.55139
C         35.62248        27.53437        -0.25113
C         34.55222        27.00808        -1.10418
C         35.58594        28.95219         0.22382
C         34.51656        29.87712        -0.26192
C         35.44330        31.62430         1.19594
C         34.32623        31.11796         0.51659
C         35.35200        32.87630         2.03772
C         34.05335        33.66605         1.81849
C         35.34310        35.89445         2.09948
C         34.05612        35.16099         2.03541
C         35.33129        37.34050         2.23450
C         34.07932        38.06849         2.40579
C         35.27995        40.12427         3.05084
C         34.01351        39.44195         2.68745
C         35.28231        41.61820         3.25577
C         33.98999        42.41508         3.22448
C         35.33756        44.51554         3.16678
C         34.10095        43.91983         3.14842
C         35.57033        45.92219         3.45719
C         33.67940        46.98022         3.67671
C         35.13696        49.00818         3.27040
C         33.79342        48.34917         3.37369
C         35.06136        50.40135         2.64805
C         33.73970        51.05167         2.41673
C         34.79583        52.98618         1.28730
C         33.68420        52.40312         1.91157
C         34.80776        54.35198         0.86213
C         38.40724        19.20635        -2.24375
C         37.29079        18.70422        -2.90823
C         38.27342        20.39497        -1.31198
C         36.97838        21.21496        -1.47440
C         38.26799        23.41822        -0.96256
C         37.01322        22.70931        -1.28499
C         38.25431        24.80567        -0.74702
C         36.98714        25.55041        -0.81196
C         38.12556        27.63346        -0.01532
C         36.91723        26.84901        -0.28248
C         38.04249        28.94015         0.69239
C         36.82534        29.61239         0.69147
C         37.89684        31.62875         1.56973
C         36.70316        30.95013         1.17657
C         37.82432        33.08180         1.70327
C         36.59782        33.73328         1.85740
C         37.75212        35.91128         1.59093
C         36.52510        35.16933         1.91646
C         37.72973        37.43628         1.63617
C         36.52544        38.06595         2.16571
C         37.83451        40.23797         2.43180
C         36.59777        39.43720         2.68857
C         37.83720        41.62726         2.63970
C         36.63184        42.30968         3.15730
C         37.83203        44.56906         2.66328
C         36.63722        43.81114         3.11771
C         37.80497        46.03217         2.57850
C         36.56252        46.72401         2.95370
C         37.73335        48.99839         2.69904
C         36.52741        48.21295         3.37952
C         37.60528        50.45693         2.17246
C         36.19051        50.87636         1.78701
C         37.18864        52.86038         0.46034
C         36.01326        52.18762         1.04109
C         37.09951        54.17440        -0.01564
C         35.88455        54.91445         0.23777
C         41.18385        16.72829        -3.04787
C         39.99368        17.36082        -3.09961
C         40.88987        19.21358        -1.68945
C         39.66220        18.37972        -2.03568
C         40.80306        20.51406        -1.27699
C         39.51780        21.30096        -1.45546
C         40.74410        23.30622        -0.49366
C         39.43528        22.55498        -0.54589
C         40.71502        24.75206        -0.34664
C         39.44320        25.48406        -0.36941
C         40.71514        27.62150         0.40145
C         39.47031        26.93093        -0.16121
C         40.39692        28.74773         1.38531
C         39.20080        29.52004         1.32954
C         40.31052        31.69064         2.02699
C         39.10996        30.91713         1.73140
C         40.36556        33.10176         1.51104
C         39.05640        33.83944         1.69579
C         40.24884        35.98542         2.15399
C         39.04324        35.20945         1.68488
C         40.33213        37.43415         1.73820
C         39.03277        38.18763         1.65334
C         40.27681        40.29416         2.10657
C         39.03732        39.60024         2.05670
C         40.26674        41.70480         2.26800
C         39.02858        42.38738         2.45177
C         40.29030        44.55274         2.44071
C         39.00059        43.83943         2.48606
C         40.28851        46.06888         2.44844
C         38.97644        46.74613         2.37414
C         40.07835        48.89092         1.53690
C         38.97087        48.23508         2.30496
C         39.97126        50.17875         1.11339
C         38.61083        50.79599         1.05618
C         39.65333        52.90598        -0.07537
C         38.43100        52.07191         0.28669
C         39.31979        53.88587        -1.19483
C         38.16509        54.77217        -0.78384
C         39.14890        56.63098        -2.02940
C         38.09881        56.07186        -1.30183
C         43.38055        16.39891        -1.87962
C         42.23076        17.16847        -2.13461
C         43.24491        19.00691        -0.88447
C         42.13869        18.47106        -1.57790
C         43.28401        20.44333        -0.58588
C         42.02185        21.23986        -0.85327
C         43.05556        23.19900         0.37940
C         41.91817        22.61311        -0.30584
C         43.01263        24.51973         0.74933
C         41.95337        25.40726         0.26968
C         42.97968        27.34465         1.48971
C         41.68965        26.65068         1.08934
C         42.83240        28.66601         2.02483
C         41.50220        29.07721         2.20431
C         42.79508        31.67012         2.50508
C         41.43646        31.14659         2.58933
C         42.77995        33.15419         2.44805
C         41.55220        33.87048         2.04564
C         42.76233        36.01634         2.07485
C         41.54989        35.24565         2.01075
C         42.77304        37.40032         2.18763
C         41.56618        38.16470         2.10453
C         42.77169        40.30696         2.18692
C         41.53997        39.56968         2.10242
C         42.77909        41.70368         2.05216
C         41.51516        42.43681         2.12037
C         42.67811        44.53457         1.45070
C         41.50411        43.81624         2.06320
C         42.71176        46.04237         1.57345
C         41.56487        46.87298         2.16431
C         42.58120        48.88648         1.07047
C         41.30641        48.05799         1.21874
C         42.46300        50.26912         0.50806
C         41.12738        50.93515         0.53475
C         41.95125        52.68997        -1.02592
C         40.91318        52.11696        -0.34404
C         41.78985        53.98295        -1.71104
C         40.54471        54.63439        -1.66961
C         41.50694        56.58869        -2.78544
C         40.39042        55.94831        -2.18729
C         44.38439        16.87178        -1.03975
C         45.36091        18.73056         0.36621
C         44.34390        18.19154        -0.52754
C         45.34388        20.12529         0.75721
C         44.31452        20.97531         0.31180
C         45.27890        22.92532         1.65451
C         44.01320        22.24273         1.08894
C         45.38857        24.41049         1.36651
C         44.03491        25.08856         1.70348
C         45.27638        27.21210         2.45007
C         44.11672        26.60424         1.68673
C         45.31438        28.73852         2.37329
C         43.97982        29.40674         2.72071
C         45.29578        31.67589         2.73555
C         43.95984        30.93598         2.52279
C         45.28880        33.05073         2.02568
C         44.07519        33.88085         2.37601
C         45.27407        35.98004         1.46021
C         44.02079        35.26526         1.83138
C         45.11179        37.51038         1.32418
C         44.12855        38.05207         2.39982
C         45.30789        40.34330         2.04208
C         44.04693        39.58566         2.38402
C         45.22540        41.77596         1.73177
C         44.00908        42.43063         1.87288
C         45.13384        44.54864         1.08753
C         44.01060        43.94212         1.90051
C         45.01080        45.89550         0.66275
C         43.81341        46.65591         1.04107
C         44.89233        48.71411        -0.02637
C         43.85855        48.13217         0.86418
C         44.68534        50.03905        -0.57577
C         43.51767        50.75666        -0.40300
C         44.22487        52.53207        -2.06191
C         43.38428        52.20280        -0.84447
C         44.11848        53.88790        -2.62667
C         42.88764        54.61579        -2.38117
C         42.71261        55.92528        -2.89590
C         47.16173        18.31204         1.94299
C         46.28220        17.85645         0.97289
C         47.19818        19.68805         2.24807
C         46.36662        20.62797         1.64832
C         47.82953        22.79878         2.05435
C         46.49555        22.09746         1.95593
C         47.82606        24.30519         2.35694
C         46.58018        25.10383         1.98148
C         47.82864        27.21344         2.18272
C         46.56195        26.45707         2.15151
C         47.78947        28.71190         2.07266
C         46.47921        29.44245         2.20478
C         47.73123        31.58629         2.12252
C         46.53839        30.90368         2.29990
C         47.82846        33.10115         2.16108
C         46.55741        33.88263         2.19660
C         47.77937        35.99212         1.62911
C         46.58426        35.31039         1.73328
C         47.78285        37.43359         1.28042
C         46.46518        38.19960         1.29746
C         47.69954        40.31851         1.42549
C         46.51504        39.62225         1.61148
C         47.65486        41.76342         1.27303
C         46.44031        42.45250         1.35163
C         47.46713        44.45038         0.32956
C         46.35315        43.83949         0.93206
C         47.28282        45.72545        -0.44785
C         46.06371        46.53258        -0.02843
C         47.04678        48.47313        -1.26309
C         45.98479        47.91468        -0.38579
C         47.06626        49.92194        -1.56928
C         45.81478        50.68908        -1.29830
C         46.61860        52.39418        -3.03081
C         45.51599        51.78829        -2.25442
C         46.36789        53.61958        -3.62030
C         45.15866        54.34624        -3.41927
C         50.39050        20.09970         2.52147
C         49.19831        20.76220         2.59137
C         50.35326        22.93757         2.34714
C         49.03939        22.16143         2.21461
C         50.28231        24.34590         1.78582
C         49.08726        25.00954         1.90993
C         50.32248        27.21492         1.51035
C         49.02554        26.45891         1.66704
C         50.31256        28.71639         1.79454
C         48.95005        29.40336         1.33542
C         49.95909        31.68712         1.23296
C         48.92249        30.90291         1.64673
C         50.28121        33.04799         1.78940
C         48.99974        33.83183         1.47466
C         50.28906        36.01138         1.72273
C         49.07828        35.32885         1.73133
C         50.27549        37.50245         1.70151
C         49.01953        38.21024         1.45779
C         50.17796        40.43601         1.39312
C         48.95443        39.59897         1.40562
C         50.04126        41.74824         0.72652
C         48.83987        42.42056         0.75340
C         49.86508        44.45294        -0.23164
C         48.72134        43.78359         0.22924
C         49.85909        45.90054        -0.50851
C         48.52875        46.63028        -0.38640
C         49.50695        48.46457        -1.97157
C         48.37042        47.75336        -1.39710
C         49.26336        49.64740        -2.71684
C         48.05008        50.39722        -2.56257
C         48.92443        52.13063        -4.01122
C         47.87169        51.65051        -3.19024
C         51.54880        20.77180         2.02019
C         52.77729        22.82018         1.47075
C         51.56967        22.13718         1.88871
C         52.73015        24.28428         1.06977
C         51.51606        25.05857         1.52265
C         52.87588        27.13786         1.50683
C         51.59142        26.44709         1.56000
C         52.91325        28.61789         1.84627
C         51.65339        29.30690         1.34834
C         52.91807        31.43536         1.47693
C         51.81076        30.57952         0.93854
C         52.84704        32.90399         1.12556
C         51.55277        33.69211         1.24138
C         52.93620        35.77943         1.48347
C         51.56134        35.21972         1.38615
C         53.28257        37.00408         1.99455
C         51.38073        38.31027         1.92976
C         52.68681        40.32962         0.80520
C         51.50937        39.77107         1.58016
C         52.57455        41.79582         0.36940
C         51.18453        42.26488        -0.09297
C         52.36300        44.39016        -0.94360
C         51.16839        43.78290        -0.20147
C         52.12898        45.63060        -1.71225
C         51.03946        46.53315        -1.25383
C         51.63096        48.06998        -3.21008
C         50.92705        47.93586        -1.87427
C         51.35903        49.22493        -3.98350
C         50.26435        50.12520        -3.62364
C         50.07372        51.37653        -4.23329
C         55.12168        22.86339         0.74456
C         53.98207        22.18037         1.31850
C         55.16812        24.21984         0.71124
C         54.05180        24.94661         1.44214
C         55.31707        27.09811         1.01167
C         54.04670        26.44734         1.25599
C         55.41704        28.55904         1.27696
C         54.16624        29.33488         1.35132
C         55.38656        31.42397         0.77613
C         54.20554        30.69837         1.20063
C         55.30207        32.84217         0.59366
C         54.03216        33.53662         0.84379
C         55.41165        35.72181         0.73389
C         54.11704        34.98703         1.09767
C         55.40859        37.18702         0.75714
C         54.47126        37.70450         1.60157
C         54.95785        40.10073        -0.25181
C         53.96684        39.81217         0.78696
C         54.41575        41.09960        -1.29627
C         53.55485        42.20825        -0.72041
C         54.25268        43.79623        -2.50382
C         53.41044        43.40996        -1.36635
C         53.97983        45.04756        -3.22870
C         52.88684        45.92240        -2.83610
C         53.38659        47.43404        -4.76655
C         52.63688        47.15545        -3.60072
C         53.08210        48.55424        -5.55116
C         52.07910        49.43637        -5.17591
C         57.31773        24.30010        -0.61570
C         56.07763        25.03005        -0.17745
C         57.59623        27.06963         0.03679
C         56.35508        26.41916         0.38450
C         57.82725        28.48800         0.37558
C         56.67603        29.29921         0.89043
C         57.70292        31.40790        -0.05542
C         56.58374        30.73034         0.52798
C         57.63739        32.82647        -0.22733
C         56.45554        33.53952         0.15425
C         57.51032        35.69127        -0.52474
C         56.46532        34.98106         0.02743
C         57.33300        37.17136        -0.84689
C         56.54313        38.02651         0.19183
C         57.17171        39.96000        -1.35095
C         56.09596        39.35381        -0.49090
C         56.80499        41.00629        -2.36073
C         55.44437        41.61936        -2.29311
C         56.18419        43.28655        -4.05937
C         55.26285        42.95781        -2.90799
C         56.05254        44.71461        -4.50841
C         54.82722        45.41872        -4.26924
C         55.73359        47.29928        -5.64825
C         54.49552        46.52954        -5.23328
C         58.46388        24.95258        -0.88544
C         59.68477        27.08311        -1.28103
C         58.59321        26.38100        -0.65861
C         59.80544        28.43770        -1.22597
C         58.97170        29.22140        -0.30525
C         59.95337        31.41821        -0.98016
C         58.88060        30.70341        -0.44997
C         59.90131        32.80861        -1.12210
C         58.76446        33.53800        -0.74852
C         59.83431        35.73014        -1.26479
C         58.72001        34.99269        -0.89590
C         59.78249        37.15121        -1.39249
C         58.63220        37.85805        -1.19092
C         59.40250        39.82184        -2.60547
C         58.50549        39.29016        -1.55299
C         59.15200        40.99064        -3.23956
C         57.89656        41.69921        -3.11139
C         58.65339        43.55523        -4.55187
C         57.62527        42.84875        -3.83337
C         58.39538        44.71538        -5.22804
C         57.10133        45.33914        -5.17629
C         56.94013        46.69933        -5.66257
O         34.50472        30.11485        -1.70585
O         58.30919        40.30043        -0.48460
O         52.21166        44.51292         0.49513
O         30.11762        42.52201         3.11179
O         36.09691        39.49362         4.07759
O         40.47377        45.32789         3.70343
O         37.54896        36.72548         0.37303
O         50.92112        46.63316         0.20721
O         36.91998        43.07559         4.36270
O         39.82088        37.86254         0.45182
O         34.71965        46.44402         4.41371
O         48.10261        28.05360         3.34116
O         26.16732        40.54951        -2.91310
O         38.86265        48.91668         3.62184
O         59.07320        28.76488         1.09164
O         33.22128        27.76411        -3.00531
O         31.16675        25.18231        -1.19027
O         24.78639        33.61932         0.17951
O         38.20691        50.76717        -0.35475
O         49.50826        26.85030         0.34223
O         43.58086        48.85761         2.11790
O         35.74533        23.42702        -3.30555
O         42.13898        51.25777         1.58455
O         29.15666        46.18782         3.57585
O         38.93618        27.72467        -1.27788
O         46.97334        50.85307        -0.42546
O         55.20913        35.16682         2.08357
O         44.88383        40.12089         3.46460
O         56.38620        28.98574         2.29727
O         36.58166        21.79360        -0.18839
O         33.63365        34.23246         3.11115
O         43.44073        33.73774         3.65820
O         52.40808        37.81232         2.70805
O         35.79055        50.83038         0.40461
O         45.56053        22.56192         3.03509
O         48.13029        20.09005         3.20497
O         55.74058        40.54462        -3.28937
O         31.69678        37.58549         2.92050
O         34.59405        20.61436        -1.30077
O         44.31296        51.46255        -3.05194
O         30.59272        50.84676         4.22059
O         47.11695        37.82189         0.02502
O         41.27474        29.94151         3.29429
O         50.94063        40.58818         2.68104
O         27.13841        38.16084        -2.52965
O         47.35997        33.68137         3.40764
O         50.79375        31.21577         0.21540
O         27.60637        33.66928         0.66885
O         47.30078        47.63679        -2.42149
O         34.59819        41.96554         4.49055
O         44.47774        35.29984         0.41684
O         54.40561        39.06430         1.89069
O         43.10559        21.23080        -1.85256
O         25.83693        41.95765         0.54570
O         29.03411        29.34342        -4.01495
O         35.30876        50.22595         4.07515
O         28.19293        43.90519         2.46238
O         51.35379        34.54134         0.07274
O         41.75164        25.46715        -1.15300
O         35.10353        27.91650         1.14742
O         51.64843        48.83797        -0.97824
H         51.54503        48.47912        -0.06705
O         43.24600        21.74162         2.22078
H         43.83166        21.80950         3.01394
O         45.39447        31.88650         4.15570
H         45.26265        31.02181         4.60106
O         48.74670        33.68352         0.05552
H         49.52255        34.06633        -0.42044
O         41.06406        26.19900         2.31752
H         41.70450        25.60350         2.77783
O         41.43031        28.22334        -0.69343
H         40.76424        28.44964        -1.38340
O         52.66886        24.32908        -0.39753
H         51.77133        24.05094        -0.67849
O         30.15485        32.28917        -2.85920
H         29.90348        31.68179        -3.58961
O         24.56125        36.11920         0.50412
H         24.75457        35.27884         0.98466
O         39.94411        53.70478         1.10269
H         40.42359        53.14822         1.75316
O         45.19169        32.72868         0.62011
H         45.05127        33.57295         0.12231
O         44.62191        37.61330         3.67762
H         44.87232        38.41996         4.19022
O         41.98072        47.41162         3.42300
H         41.86854        46.70457         4.09745
O         52.99214        28.67991         3.30509
H         53.04562        29.64391         3.53228
O         54.00180        45.87076        -6.44977
H         54.64846        45.17053        -6.68436
O         32.30613        44.28952         4.66586
H         32.12833        43.31792         4.72659
O         40.03749        36.09872         3.60766
H         40.25553        35.23803         4.02574
O         50.47052        32.97881         3.21614
H         49.67763        32.57830         3.63338
O         52.73629        31.40109         2.94396
H         53.32918        32.07705         3.33809
O         43.79438        29.23412         4.17463
H         42.85625        29.48644         4.36238
O         39.19061        22.17436         0.83308
H         38.26568        21.83024         0.88513
O         57.44225        38.32048         1.26922
H         56.98049        38.90182         1.90909
O         44.19170        44.33358         3.28680
H         45.04623        43.97209         3.60220
O         42.57078        44.25142         0.01538
H         41.90313        44.86068        -0.36599
O         29.76612        43.57374        -0.28652
H         29.88257        43.04392        -1.10203
O         39.48976        21.76897        -2.82566
H         40.33920        22.21929        -3.02041
O         55.73416        42.48192        -5.20786
H         55.69263        41.54754        -4.88477
O         43.62351        24.73436         3.05031
H         44.15402        25.30881         3.66571
O         52.91173        42.45593         1.60807
H         52.27736        42.14408         2.29517
O         40.57370        33.01316         0.06497
H         40.51653        33.91746        -0.31094
O         38.86262        53.08181        -2.32323
H         38.61910        53.69231        -3.05005
O         53.47501        40.28084        -2.05118
H         53.99240        39.85289        -2.77245
O         26.88456        44.19601        -2.71584
H         26.57918        43.77643        -3.54870
O         47.84335        24.32296         3.82848
H         47.01913        23.87228         4.12494
O         55.27568        25.25187        -1.39589
H         54.34550        24.97400        -1.20502
O         39.39332        17.58013        -0.83194
H         39.11465        18.22301        -0.13279
O         25.54278        31.22873        -0.20525
H         24.93716        31.76609         0.35854
O         36.79196        48.19115         4.77943
H         36.63306        49.09343         5.13337
O         38.26114        19.85378         0.04116
H         37.33014        19.64982         0.27492
O         56.50090        37.20526        -2.05096
H         56.94930        36.68005        -2.74703
O         35.36779        32.41026         3.41446
H         34.81198        33.04162         3.93131
O         50.36150        28.94639         3.21387
H         51.22756        28.60882         3.55857
O         26.10231        35.50379        -2.75966
H         26.92565        35.82488        -3.19977
O         27.95014        41.35439         1.97535
H         26.97941        41.19470         1.98643
O         50.53296        23.13223         3.78349
H         49.72956        23.60535         4.11038
O         45.59831        24.50315        -0.06789
H         45.58028        25.44752        -0.33166
O         41.03094        47.45201        -0.08598
H         40.68649        48.14380        -0.69073
O         48.50106        47.24681         0.92040
H         49.43211        47.37899         1.21195
O         37.95878        51.32126         3.27523
H         38.60705        50.82616         3.83151
O         48.72496        29.23475        -0.06674
H         49.38064        29.78763        -0.54523
O         43.91593        53.01166         0.24318
H         43.47660        52.69593         1.06899
O         26.99726        36.33793         0.72161
H         27.31018        35.64861         1.34935
O         47.13654        45.25871        -1.82335
H         46.23414        44.89049        -1.92299
O         28.74200        35.99820        -2.45691
H         29.64872        36.23083        -2.74665
O         32.14850        41.40480         4.39760
H         32.91986        41.10161         4.93213
O         50.98008        41.73246        -1.43425
H         50.04959        41.89526        -1.69566
O         44.48256        37.81654         0.07107
H         45.09266        37.52682        -0.64248
O         54.23806        24.75168         2.86667
H         55.02726        25.25881         3.14913
O         45.03841        26.87233         3.86747
H         44.55426        27.63713         4.27676
O         23.87461        46.92821         0.08666
H         24.18686        47.29274         0.94193
H         23.01255        28.11727        -4.73811
H         22.87592        30.38229        -3.84697
H         22.83252        32.14445        -3.20160
H         22.56239        34.28769        -2.14911
H         22.41959        36.23108        -1.29950
H         22.67908        38.58912        -1.83806
H         22.94140        40.50219        -2.32666
H         23.25601        42.95092        -2.49150
H         24.31446        44.83845        -3.49089
H         23.76797        47.09698        -2.75268
H         26.26059        24.62164        -4.75682
H         24.22368        25.98490        -4.99621
H         26.30804        50.20268        -0.19647
H         24.66582        49.14377        -1.65420
H         27.96019        23.66544        -4.73872
H         26.94127        50.94811         1.52600
H         29.95317        22.33413        -4.46301
H         28.65249        52.11064         2.84330
H         33.54135        19.95133        -3.87218
H         31.62495        21.36127        -4.32161
H         32.41315        54.19693         1.77188
H         30.44174        53.20011         2.78821
H         35.18909        18.80906        -3.36397
H         33.92446        54.98006         1.03410
H         37.38525        17.76697        -3.47642
H         35.81775        55.96435        -0.07349
H         41.40940        15.89515        -3.73107
H         39.22477        17.03812        -3.81599
H         39.05412        57.65412        -2.41964
H         37.21407        56.69717        -1.11867
H         43.46804        15.39512        -2.31949
H         41.39900        57.61292        -3.16973
H         45.24352        16.22117        -0.82768
H         43.55440        56.43209        -3.38646
H         47.84460        17.62526         2.45836
H         46.27696        16.78840         0.71982
H         47.13843        54.09709        -4.24171
H         45.08816        55.33254        -3.89889
H         50.45846        19.05342         2.84495
H         48.83097        53.10593        -4.50744
H         52.43194        20.16577         1.77732
H         50.84444        51.78325        -4.90265
H         55.91622        22.24547         0.30060
H         54.08941        21.10923         1.53931
H         53.62879        48.72654        -6.48797
H         51.84711        50.29521        -5.81956
H         57.24105        23.22447        -0.82879
H         55.62206        48.32289        -6.03371
H         59.33280        24.41470        -1.29379
H         60.36073        26.50295        -1.92661
H         60.54242        28.94998        -1.86044
H         60.86990        30.89148        -1.27838
H         60.77907        33.32050        -1.53764
H         60.79469        35.23748        -1.46300
H         60.70968        37.67097        -1.67302
H         60.33725        39.28477        -2.81863
H         59.89546        41.36690        -3.95523
H         59.68885        43.19119        -4.50669
H         59.21121        45.24379        -5.74212
H         57.83080        47.23045        -6.03045
