         324
 CSIRO Nanostructure Databank - Neutral Graphene Oxide Data Set
C          1.41849         1.94750         1.31386
C          1.39533         3.37742         1.34994
C          2.54789         1.23063         1.03841
C          2.50683         4.13723         1.02791
C          1.38129         6.32457         1.27077
C          1.39103         7.71535         1.26672
C          2.52181         5.58586         0.93811
C          2.54249         8.44487         0.90742
C          1.43291        10.60445         1.41750
C          1.42444        12.01914         1.49099
C          2.51684         9.89547         0.90280
C          2.42413        12.77447         0.92504
C          1.29400        14.95991         1.39158
C          1.32192        16.34008         1.48042
C          2.46153        14.22177         1.06406
C          2.53033        17.05265         1.29633
C          2.56030        18.48350         1.33038
C          3.84484         1.89836         0.91827
C          3.80508         3.46480         0.87993
C          4.97061         1.28925         0.24207
C          4.82581         4.12153        -0.02595
C          3.72412         6.29804         0.53351
C          3.71848         7.74985         0.50523
C          4.87593         5.61982         0.14601
C          4.88241         8.47676         0.09015
C          3.65890        10.60990         0.38579
C          3.46971        12.09113         0.07270
C          4.81499         9.92090         0.04189
C          4.77801        12.84426         0.07315
C          3.68772        14.90449         0.89225
C          3.73859        16.32813         1.04935
C          4.86262        14.15417         0.46724
C          4.95227        17.05763         0.90547
C          3.72192        19.17541         1.11041
C          4.96077        18.48102         0.89369
C          6.24964         1.95168         0.17968
C          6.21067         3.50583         0.07397
C          7.47207         1.27483        -0.26088
C          7.32278         4.22017        -0.59108
C          5.94927         6.33188        -0.63984
C          6.06703         7.80607        -0.33129
C          7.26007         5.57478        -0.75124
C          7.27283         8.50322        -0.65284
C          5.97020        10.64291        -0.56436
C          5.92103        12.15255        -0.56348
C          7.27997         9.94462        -0.70827
C          7.18972        12.91803        -0.79361
C          6.18380        14.82101         0.51238
C          6.22582        16.35184         0.80374
C          7.31992        14.26513        -0.19849
C          7.43362        17.08680         0.43037
C          6.17392        19.18647         0.73212
C          7.40664        18.52370         0.48814
C          8.57711         1.96831        -0.68965
C          8.46294         3.40312        -1.18099
C          9.83087         1.28450        -0.77393
C          9.76379         4.14567        -1.15626
C          8.43403         6.34710        -1.23427
C          8.48420         7.80235        -0.97475
C          9.76923         5.58607        -1.39002
C          9.71977         8.49290        -1.08475
C          8.46407        10.64540        -0.96397
C          8.44653        12.13294        -1.08627
C          9.72400         9.93219        -1.04586
C          9.73558        12.89997        -1.02455
C          8.54909        14.96420        -0.21096
C          8.60574        16.39081         0.10415
C          9.74362        14.29371        -0.55493
C          9.83019        17.12466        -0.05352
C          8.61962        19.23097         0.35570
C          9.83757        18.54626         0.14510
C         11.03773         1.94577        -0.96287
C         11.00031         3.39944        -1.25430
C         12.28728         1.27021        -0.95707
C         12.28840         4.16843        -1.25487
C         11.02061         6.35667        -1.24246
C         10.98497         7.77175        -1.15887
C         12.26311         5.66132        -1.17772
C         12.22666         8.48931        -1.05471
C         10.97044        10.61737        -1.07631
C         11.01737        12.10354        -1.08448
C         12.19112         9.90401        -1.02072
C         12.26457        12.80150        -0.80997
C         11.01144        14.98319        -0.31080
C         11.05695        16.46367        -0.31273
C         12.31761        14.20449        -0.45923
C         12.28714        17.15893        -0.40237
C         11.08727        19.21396         0.19696
C         12.30944        18.57138        -0.04915
C         13.51470         1.95305        -0.89852
C         13.45329         3.44480        -0.60104
C         14.75492         1.28489        -0.95149
C         14.74507         4.12327        -0.97015
C         13.47583         6.35466        -1.15971
C         13.50570         7.78990        -1.09406
C         14.75674         5.60124        -1.21078
C         14.74491         8.46713        -1.12819
C         13.46649        10.63834        -0.85845
C         13.48698        12.09908        -1.16864
C         14.78928         9.91177        -0.91131
C         14.77178        12.85360        -1.25258
C         13.55130        14.97696        -0.69836
C         13.50236        16.39650        -0.68889
C         14.76869        14.31590        -0.98642
C         14.71139        17.04834        -1.01812
C         13.51596        19.32430         0.26728
C         14.73980        19.08489        -0.33979
C         16.01409         1.93562        -0.80228
C         15.97258         3.39691        -0.53220
C         17.24997         1.29125        -0.75758
C         17.22245         4.17360        -0.36975
C         16.00147         6.34110        -0.98520
C         16.01863         7.73508        -1.54932
C         17.16780         5.67773        -0.44991
C         17.33474         8.50377        -1.29211
C         16.02521        10.71397        -1.15506
C         16.02854        12.07634        -1.14589
C         17.32712        10.00949        -1.22947
C         17.30542        12.82612        -1.19530
C         15.98297        15.03170        -0.97522
C         15.98654        16.44922        -0.88473
C         17.27257        14.34127        -1.13063
C         17.20708        17.21920        -0.70607
C         16.07565        19.40510         0.01301
C         17.21217        18.63330        -0.36422
C         18.51104         1.99199        -0.67878
C         18.48862         3.48314        -0.77647
C         19.71651         1.33437        -0.56318
C         19.76953         4.27124        -0.84812
C         18.48969         6.42842        -0.38998
C         18.53322         7.84803        -0.73966
C         19.76568         5.70331        -0.45062
C         19.69129         8.56442        -0.39013
C         18.51685        10.71753        -0.70787
C         18.51274        12.14411        -0.71835
C         19.65771        10.00495        -0.35610
C         19.66927        12.88919        -0.40667
C         18.48166        15.06710        -0.70915
C         18.44101        16.49441        -0.60652
C         19.66040        14.33621        -0.45593
C         19.68440        17.17889        -0.37918
C         18.48017        19.28852        -0.23006
C         19.69918        18.62529        -0.30621
C         21.02906         2.00824        -0.67074
C         21.06876         3.50913        -0.87387
C         22.26364         1.35737        -0.21078
C         22.32279         4.26088        -0.52244
C         20.92605         6.43550        -0.28196
C         20.89837         7.85216        -0.04097
C         22.23268         5.73436        -0.27811
C         22.08462         8.53993         0.40583
C         20.76226        10.74563         0.28366
C         20.84387        12.20248         0.03756
C         21.97917         9.98271         0.76213
C         22.05660        12.89520         0.15457
C         20.88552        15.03731        -0.21451
C         20.87916        16.46251        -0.21547
C         22.08707        14.29555        -0.05210
C         22.14064        17.20003        -0.01508
C         20.95542        19.33005        -0.30369
C         22.16797        18.66262        -0.24400
C         23.46538         2.05692        -0.00676
C         23.50254         3.50513        -0.03171
C         24.67100         1.36786         0.31001
C         24.64202         4.18951         0.37799
C         23.31375         6.39407         0.50755
C         23.28563         7.86875         0.60211
C         24.57975         5.63367         0.73057
C         24.50230         8.50892         1.14312
C         23.22475        10.76961         1.07921
C         23.27896        12.23069         0.67804
C         24.51116        10.01838         1.31890
C         24.58899        12.87246         0.56453
C         23.37696        14.96471        -0.24459
C         23.43134        16.44168        -0.08441
C         24.69534        14.22070         0.05590
C         24.67829        17.12500        -0.59433
C         23.44504        19.30885        -0.27602
C         24.65885        18.61920        -0.32045
C         25.86825         2.05404         0.59265
C         25.85391         3.49157         0.67343
C         27.09159         1.36330         0.82911
C         27.02477         4.20749         1.03928
C         25.83304         6.38547         0.93902
C         25.81496         7.81283         1.05493
C         27.02075         5.65751         1.10432
C         26.99393         8.54400         1.23860
C         25.79023        10.73037         1.23055
C         25.77004        12.20893         1.13566
C         27.00895        10.01018         1.19939
C         27.08354        12.95694         1.08412
C         25.93450        15.01867         0.22531
C         25.93661        16.41932        -0.11301
C         27.12483        14.34858         0.55265
C         27.11043        17.14767        -0.08138
C         25.90755        19.28630        -0.33110
C         27.12045        18.57420        -0.30649
C         28.26479         2.05801         1.13324
C         28.23257         3.48876         1.26926
C         29.52698         1.39221         1.32406
C         29.41870         4.19208         1.62561
C         28.20160         6.35092         1.52648
C         28.24647         7.82317         1.53954
C         29.29550         5.57922         1.91072
C         29.62778         8.55917         1.22387
C         28.24697        10.67458         0.99708
C         28.35156        12.14403         1.06873
C         29.39755         9.86250         0.45185
C         29.61726        12.83087         0.61627
C         28.38438        14.99456         0.35927
C         28.42424        16.50550         0.30688
C         29.58009        14.27869         0.26259
C         29.52526        17.02900        -0.60982
C         28.38406        19.24202        -0.43301
C         29.57383        18.54362        -0.54440
C         30.68388         2.10020         1.51632
C         30.69440         3.53653         1.60519
C         31.92368         4.22130         1.38759
C         31.14942         6.56454         1.49295
C         30.85990         7.82043         0.90004
C         32.09566         5.58339         1.11828
C         31.79433         8.42625         0.01316
C         30.67993        10.60697         0.14951
C         30.75215        12.01043         0.12061
C         31.75951         9.78134        -0.26924
C         31.91877        12.71870        -0.26884
C         30.81062        14.91477        -0.12055
C         30.85001        16.33471        -0.36687
C         31.95790        14.10254        -0.32804
C         32.02007        17.05863        -0.51928
C         30.83192        19.19360        -0.69913
C         32.00619        18.46797        -0.71013
O         23.57707         5.80393         1.82983
O         18.95586         4.02996        -2.05225
O         24.14281        14.39947        -1.33066
O         22.67950         5.24352        -1.58158
O          8.92506         5.97692        -2.56384
O         14.16218        10.32227         0.38804
O         26.34696        12.88231         2.34488
O         17.66992         6.23363         0.84635
O         29.08352         8.47914         2.54209
O         23.02634        11.77630         2.09639
O         11.81632         3.67349        -2.51913
O         17.45504        13.63182        -2.41547
O          6.47277        15.34554         1.84692
O         22.92536        16.84578         1.20884
O          4.22698         2.76734         2.05104
O         14.03623        12.47830        -2.49184
O         20.90729        10.30184         1.69520
O         21.22498         2.65377        -2.02277
O         14.81509         4.59274        -2.33405
O         10.43505        12.72952        -2.31984
O          7.64607        12.72620        -2.16788
O         30.35007         6.20072         2.59652
O         17.63807         9.32388        -2.49476
O         24.34555         9.12572         2.47286
O         11.71902        14.44368         0.88718
O         16.50571         3.69025         0.81220
O          6.56241         2.89222         1.30504
O         29.35033        12.61738         2.05824
O         14.64523        18.33158        -1.53566
O          5.53424        11.39216        -1.76667
O         29.13370        16.67496        -1.97151
H         29.82832        17.00979        -2.57667
O         15.90332         7.54261        -2.99075
H         16.47384         8.22105        -3.42489
O          2.95907        12.14293        -1.30149
H          3.69676        11.82400        -1.87953
O         24.63101        16.99102        -2.04459
H         25.49863        17.27432        -2.40200
O         28.93041         9.37940        -0.87426
H         29.02687        10.11362        -1.51735
O         13.25981         3.60742         0.82890
H         14.07446         3.30558         1.28674
O         28.75056        16.95233         1.65141
H         28.12189        16.53299         2.27573
O          4.35113         3.86320        -1.38406
H          4.72874         4.57336        -1.96528
O          8.10727         3.27738        -2.60456
H          8.27274         4.16229        -3.01556
O          5.45544         6.29098        -2.05865
H          4.76693         6.98619        -2.14719
H          0.46444         1.41708         1.44403
H          0.42652         3.86133         1.53340
H          2.49683         0.14484         0.87465
H          0.45538         5.80806         1.55591
H          0.46625         8.23815         1.53977
H          0.58170        10.07280         1.86107
H          0.61407        12.50093         2.05632
H          0.33752        14.43475         1.51799
H          0.39598        16.89749         1.68244
H          1.62071        19.02401         1.51596
H          4.81611         0.37878        -0.35392
H          3.72581        20.27476         1.11391
H          7.55245         0.19232        -0.07629
H          6.16385        20.28477         0.79081
H          9.84262         0.20897        -0.53905
H          8.62277        20.32628         0.45577
H         12.28644         0.16928        -0.96726
H         11.09620        20.28237         0.45944
H         14.74876         0.19676        -1.12064
H         13.43788        20.08577         1.05768
H         17.28252         0.19370        -0.83583
H         16.26038        20.29422         0.63555
H         19.71993         0.23941        -0.44715
H         18.47939        20.37779        -0.07340
H         22.25286         0.26706        -0.06099
H         20.93872        20.42743        -0.38542
H         24.66968         0.26770         0.30977
H         23.46726        20.41017        -0.25722
H         27.11089         0.26592         0.75395
H         25.93102        20.38692        -0.34093
H         29.55773         0.29515         1.25444
H         28.39352        20.34215        -0.48234
H         31.64475         1.56739         1.57590
H         32.78875         3.57082         1.17715
H         32.99826         5.88510         0.56526
H         32.67865         7.84674        -0.28919
H         32.63151        10.22927        -0.76509
H         32.82680        12.16230        -0.53764
H         32.89935        14.57938        -0.63378
H         32.99699        16.56359        -0.42212
H         30.86137        20.29141        -0.76395
H         32.96696        18.99251        -0.80802
