         236
 CSIRO Nanostructure Databank - Neutral Graphene Oxide Data Set
C        -11.30668         0.67462        -0.05363
C        -10.11130         1.47756        -0.39978
C         -8.83323         0.71365        -0.68521
C         -7.57017         1.45276        -0.54085
C         -6.34659         0.63308        -0.76260
C         -5.06700         1.35294        -0.95744
C         -3.77397         0.59449        -0.91260
C         -2.53947         1.37817        -0.50018
C         -1.25878         0.61282        -0.72165
C         -0.09687         1.33269        -0.72267
C          1.18921         0.62223        -1.05167
C          2.43572         1.42475        -0.80443
C          3.73295         0.66565        -1.02047
C          4.96423         1.45398        -0.64774
C          6.21580         0.71631        -0.52909
C          7.46869         1.43427        -0.57508
C          8.67405         0.76334        -0.50598
C          9.92610         1.48980        -0.36255
C         11.15848         0.72249        -0.35732
C         -9.96953         2.88314         0.00209
C         -8.76880         3.55650        -0.11426
C         -7.54820         2.82349        -0.43388
C         -6.22380         3.55483        -0.22886
C         -5.03130         2.83492        -0.88275
C         -3.84868         3.38173        -1.27324
C         -2.51545         2.76140        -1.14546
C         -1.31815         3.56781        -0.70537
C         -0.11532         2.75588        -0.16995
C          1.17344         3.54009        -0.39923
C          2.40485         2.77144        -0.58801
C          3.67968         3.52780        -0.70842
C          4.94785         2.80479        -0.50860
C          6.18679         3.47435         0.06553
C          7.43130         2.95261        -0.67550
C          8.70314         3.63936        -0.18947
C          9.92214         2.86376        -0.19695
C         -8.68656         4.97394         0.23002
C         -7.55016         5.73054         0.11053
C         -6.31913         5.10544        -0.53479
C         -5.07151         5.80626         0.00955
C         -3.76889         5.47816        -0.55515
C         -2.58051         5.80374         0.00919
C         -1.36291         4.97187        -0.14465
C         -0.04793         5.67002         0.07609
C          1.17864         4.91259        -0.29315
C          2.43527         5.69399        -0.18906
C          3.68161         5.00838        -0.61734
C          4.98159         5.74625        -0.47826
C          6.15671         5.01139         0.09909
C          7.44408         5.77343         0.19994
C          8.69474         4.97202         0.13348
C         -7.51090         7.15303         0.43147
C         -6.34807         7.86092         0.67276
C         -5.07876         7.11437         0.77116
C         -3.76468         7.81527         1.01696
C         -2.47383         7.04016         0.82654
C         -1.20173         7.79016         0.62202
C         -0.07540         7.15857         0.18958
C          1.12677         7.94214        -0.28863
C          2.43296         7.19330        -0.09118
C          3.68948         7.95477        -0.27356
C          4.97599         7.24540        -0.39182
C          6.24546         7.95163        -0.06260
C          7.42167         7.25062         0.00671
C         -6.22725         9.30288         0.72576
C         -5.02305         9.95500         0.76724
C         -3.72883         9.29262         0.87518
C         -2.52615         9.94096         0.80082
C         -1.20983         9.23137         1.10156
C          0.04612         9.97933         0.71438
C          1.18675         9.35751         0.25434
C          2.45287        10.02057         0.20108
C          3.67292         9.34435        -0.06139
C          4.95133        10.04665        -0.00347
C          6.14972         9.39722         0.00951
C        -11.28317        -0.67943        -0.04333
C        -10.07083        -1.47460        -0.18980
C         -8.78676        -0.81871        -0.67695
C         -7.52540        -1.39091        -0.03867
C         -6.32434        -0.78506        -0.30526
C         -5.05220        -1.49825        -0.15921
C         -3.77814        -0.85078        -0.55177
C         -2.47761        -1.46565        -0.19793
C         -1.30325        -0.82552        -0.50925
C         -0.00292        -1.58847        -0.57711
C          1.25760        -0.76948        -0.44516
C          2.45056        -1.39498        -0.21857
C          3.71795        -0.69160        -0.31266
C          4.90407        -1.31706         0.00417
C          6.15901        -0.65275        -0.28179
C          7.38555        -1.44992        -0.38011
C          8.69721        -0.70975        -0.55496
C          9.96684        -1.43003        -0.27885
C         11.18307        -0.64005        -0.34754
C        -10.08284        -2.81988         0.02435
C         -8.83283        -3.55654         0.35900
C         -7.56743        -2.76649         0.52558
C         -6.24755        -3.50056         0.79779
C         -5.02157        -2.80908         0.26626
C         -3.77859        -3.53833         0.41124
C         -2.55672        -2.69897         0.67483
C         -1.24797        -3.47252         0.76011
C          0.02721        -2.80638         0.30848
C          1.25544        -3.60009         0.20539
C          2.56073        -2.90922        -0.12542
C          3.60788        -3.37253         0.90228
C          4.98362        -2.61478         0.81268
C          6.21610        -3.46308         0.44894
C          7.38483        -2.83855         0.13293
C          8.72056        -3.46515         0.51828
C          9.95536        -2.76317        -0.00185
C         -8.71589        -5.01960         0.19843
C         -7.50275        -5.68039         0.19655
C         -6.24611        -4.96854         0.40044
C         -5.03740        -5.63213         0.42611
C         -3.76686        -4.91880         0.54334
C         -2.49442        -5.65149         0.60386
C         -1.26042        -4.95043         0.73063
C         -0.02688        -5.64146         0.64978
C          1.24675        -4.92219         0.55109
C          2.53299        -5.61266         0.67632
C          3.69725        -4.91205         0.81556
C          4.97432        -5.61799         1.09663
C          6.30012        -4.82593         1.13340
C          7.49421        -5.61602         0.59656
C          8.64270        -4.95002         0.29150
C         -7.43879        -7.10285        -0.09063
C         -6.26088        -7.80644        -0.01812
C         -5.03484        -7.10845         0.42789
C         -3.71786        -7.83640         0.40310
C         -2.46326        -7.05314         0.40538
C         -1.23686        -7.73999         0.23179
C         -0.03053        -7.03375         0.39597
C          1.26781        -7.68476         0.12579
C          2.47262        -7.11803         0.84249
C          3.75078        -7.80483         0.46333
C          4.99205        -7.12481         0.81880
C          6.27127        -7.77807         0.46321
C          7.42624        -7.04724         0.38547
C         -6.15342        -9.21649        -0.31334
C         -4.95565        -9.87650        -0.35049
C         -3.68860        -9.22694        -0.10106
C         -2.47981        -9.84713        -0.30620
C         -1.21557        -9.16330        -0.12192
C         -0.02582        -9.83421        -0.31189
C          1.27569        -9.15643        -0.24912
C          2.54410        -9.86266        -0.10272
C          3.75226        -9.16357         0.07425
C          5.03775        -9.84483        -0.03518
C          6.21633        -9.18512         0.12419
O         -6.05160        -3.51377         2.24026
H         -6.95075        -3.52804         2.64624
O         -3.78787         4.71326        -1.72205
O         -3.67455        -0.36940        -1.96996
O          3.05923        -3.09661         2.19017
H          3.80021        -2.65746         2.70051
O         -6.43918         5.31315        -1.94821
H         -5.63130         4.95458        -2.38209
O         -2.82851        -2.14756         1.99883
H         -1.95551        -1.91563         2.39493
O          6.58271         5.49150         1.39850
O          2.98991        -3.35368        -1.43912
H          2.25863        -3.15076        -2.06401
O         -8.67534        -1.22250        -2.07565
H         -9.09878        -0.51026        -2.60897
O          4.89579        -6.56049         2.20279
O          6.54580        -4.52428         2.53253
H          6.04656        -3.66547         2.71247
O          5.20232         6.52110        -1.68755
O          0.99268         8.05782        -1.73781
H          0.20701         8.60916        -1.93546
O         -2.66974         1.62167         0.89097
O          0.06228        -2.13778        -1.94148
H          0.20228        -1.35314        -2.53200
O          3.60826         4.37491        -1.93023
O         -1.52559         3.24290        -2.11108
O          6.27037         3.05404         1.44209
H          6.27052         2.07429         1.47495
O         -1.14212         9.15682         2.56250
H         -1.79803         8.46608         2.83673
O          1.12156         0.36241        -2.50241
H          2.05474         0.30088        -2.82973
O          8.85415        -3.26185         1.96183
H          8.09472        -3.73795         2.39903
O         -3.05609         7.21477         2.16091
O          3.82053         0.36765        -2.45606
H          4.68090        -0.07800        -2.61398
O          2.53991         6.36266         1.11810
O         -0.23198         2.55797         1.25219
H         -1.15299         2.18902         1.41602
O          7.26343         3.30478        -2.07069
H          7.99454         2.89885        -2.58093
O         -4.47156        -7.68890         1.66240
O          2.26807        -7.38011         2.26262
H          3.05334        -7.00624         2.73373
O          1.45648        -8.03376        -1.25774
O         -5.99716         3.36593         1.18606
H         -5.19650         3.85401         1.47829
O         -0.73232         5.00937         1.18434
O          5.34285        -2.22790         2.13180
O         -8.43822        -2.97820         1.69869
O         -5.85342         0.89947        -2.12936
O          8.00395        -1.29341        -1.71778
O         -5.10761         5.84397         1.47429
O         -9.65417         1.21683        -1.79232
O         -0.38075        -2.76500         1.71497
H         12.14695        -1.16871        -0.29932
H         12.10551         1.28214        -0.33151
H         10.87420         3.38722        -0.01737
H          9.64330         5.47077         0.39135
H          8.37308         7.79651         0.10903
H          7.08006         9.97515         0.11397
H          4.92601        11.14206         0.09207
H          2.49570        11.08577         0.47829
H          0.11526        11.02887         1.04571
H         -2.51205        11.03774         0.69913
H         -5.01791        11.05490         0.73181
H         -7.14977         9.89838         0.65251
H         -8.47128         7.69393         0.44971
H         -9.59834         5.43807         0.64008
H        -10.85306         3.40644         0.39901
H        -12.24302         1.20841         0.16828
H        -12.20509        -1.22818         0.20596
H        -11.03438        -3.32942         0.25106
H         -9.63623        -5.59026        -0.00025
H         -8.36938        -7.61926        -0.37287
H         -7.07852        -9.76405        -0.54832
H         -4.93693       -10.94347        -0.61917
H         -2.45598       -10.89055        -0.65660
H         -0.03928       -10.91706        -0.50867
H          2.56373       -10.95990        -0.18889
H          5.03300       -10.91300        -0.29421
H          7.16805        -9.71691        -0.02090
H          8.35600        -7.55268         0.07997
H          9.52384        -5.50455        -0.06870
H         10.91424        -3.28014         0.16601
