         232
 CSIRO Nanostructure Databank - Neutral Graphene Oxide Data Set
C        -11.11412         0.80346        -1.38532
C         -9.96084         1.64502        -1.16571
C         -8.75218         1.00465        -0.51202
C         -7.46273         1.55383        -1.09588
C         -6.15686         0.93850        -0.83468
C         -4.97441         1.51273        -1.34951
C         -3.75904         0.68502        -1.34064
C         -2.51791         1.11033        -1.94912
C         -1.27336         0.64765        -1.56649
C         -0.04365         1.46912        -1.64703
C          1.24450         0.76371        -1.42970
C          2.50907         1.53700        -1.76580
C          3.76859         0.71974        -1.47302
C          5.05193         1.44960        -1.40922
C          6.31068         0.66868        -1.25211
C          7.46265         1.24665        -0.77497
C          8.71067         0.50868        -0.66781
C          9.91858         1.19235        -0.24830
C         11.13336         0.43187        -0.13925
C         -9.96854         3.00881        -1.32091
C         -8.75117         3.77715        -1.05811
C         -7.49215         3.03827        -1.34759
C         -6.19365         3.69863        -1.31488
C         -5.00378         2.97837        -1.59572
C         -3.80230         3.77584        -1.57390
C         -2.52392         3.24598        -1.88729
C         -1.38504         3.65202        -1.18879
C         -0.04925         3.00464        -1.36880
C          1.26674         3.59853        -0.87475
C          2.44011         2.90934        -1.06568
C          3.70175         3.47285        -0.43830
C          5.00541         2.86310        -0.92054
C          6.24222         3.44731        -0.34420
C          7.41552         2.56597        -0.03202
C          8.72169         3.32463         0.01388
C          9.92142         2.56693        -0.00960
C         -8.68269         5.04078        -0.54756
C         -7.33362         5.50664        -0.03645
C         -6.21614         5.08297        -0.98133
C         -5.04907         5.80628        -1.12676
C         -3.79387         5.15293        -1.20280
C         -2.63365         5.69141        -0.54781
C         -1.62153         4.75677        -0.32094
C          0.32000         5.61444         0.28710
C          1.34285         4.98587        -0.35252
C          2.58633         5.85224        -0.58215
C          3.81206         4.98719        -0.40742
C          5.01378         5.54675        -0.03012
C          6.25024         4.76767         0.02065
C          7.50092         5.44000         0.36099
C          8.71559         4.68679         0.27707
C         -7.26651         6.84079         0.70955
C         -6.11781         7.51891         1.10395
C         -4.89572         7.48580         0.33279
C         -3.61216         7.70142         0.78410
C         -2.49411         7.17304        -0.16503
C         -1.11477         7.59927         0.30119
C          0.12693         7.04595         0.42107
C          1.36420         7.92920         0.51058
C          2.61164         7.06792         0.35575
C          3.79865         7.52614         0.84074
C          5.05436         6.88649         0.50112
C          6.26743         7.51253         0.81374
C          7.49284         6.79893         0.66932
C         -5.97338         8.22093         2.36337
C         -4.73449         8.59952         2.79847
C         -3.49476         8.41031         2.05492
C         -2.34536         9.00673         2.58087
C         -1.08234         9.11855         1.90470
C          0.17106         9.20302         2.45892
C          1.39981         8.82221         1.76415
C          2.59368         9.20315         2.28907
C          3.90005         8.55548         1.94316
C          5.09115         9.46011         1.71737
C          6.23496         8.90625         1.26011
C        -11.07791        -0.54197        -1.15336
C         -9.86256        -1.22509        -0.74295
C         -8.72276        -0.50606        -0.54575
C         -7.46703        -1.14613        -0.08781
C         -6.16829        -0.32965        -0.08268
C         -4.80689        -0.87927         0.34823
C         -3.67847        -0.53043        -0.59621
C         -2.47748        -1.26844        -0.49671
C         -1.20943        -0.81026        -1.19097
C          0.04058        -1.12509        -0.35227
C          1.26968        -0.52638        -1.00803
C          2.47364        -1.34975        -1.28537
C          3.75788        -0.63841        -1.46416
C          4.95321        -1.49136        -1.87492
C          6.30059        -0.73761        -1.72622
C          7.58975        -1.51624        -1.55793
C          8.75873        -0.85099        -0.95663
C          9.95556        -1.62384        -0.72996
C         11.15101        -0.91827        -0.34569
C         -9.91439        -2.71655        -0.51114
C         -8.61192        -3.35850        -0.04135
C         -7.43060        -2.62164        -0.00016
C         -6.13417        -3.18804         0.45809
C         -4.88292        -2.36003         0.71894
C         -3.56084        -3.08543         0.85397
C         -2.37307        -2.49697         0.21624
C         -1.15867        -3.22919         0.30696
C          0.10606        -2.61520        -0.08623
C          1.27483        -3.32623        -0.20513
C          2.48950        -2.79273        -0.87744
C          3.80290        -3.50925        -0.78557
C          4.95314        -2.88994        -1.22546
C          6.18844        -3.69876        -1.41138
C          7.54086        -3.01904        -1.55049
C          8.75257        -3.76141        -1.11461
C          9.94535        -3.01080        -0.84014
C         -8.76045        -4.70806         0.45637
C         -7.74092        -5.65237         0.45939
C         -5.90626        -4.62880         0.35962
C         -4.91619        -5.25524         1.14152
C         -3.58266        -4.57471         1.15962
C         -2.39078        -5.35179         0.74474
C         -1.20704        -4.63908         0.58741
C          0.09011        -5.33985         0.75980
C          1.27770        -4.77611         0.06546
C          2.55534        -5.55694         0.09433
C          3.83607        -4.88526        -0.26985
C          4.98377        -5.64024        -0.29970
C          6.17283        -5.14655        -1.01779
C          7.48313        -5.90938        -0.88230
C          8.72038        -5.12059        -0.88608
C         -7.54392        -6.89356         1.15362
C         -6.28347        -7.37821         1.53343
C         -5.13338        -6.51664         1.72520
C         -3.57053        -7.77168         0.45306
C         -2.37187        -6.84543         0.63762
C         -1.12276        -7.55329         1.04642
C          0.13478        -6.75991         1.18976
C          1.38543        -7.54840         1.04771
C          2.54842        -6.91403         0.70815
C          3.83007        -7.61805         0.87942
C          5.08342        -6.95569         0.38093
C          6.30663        -7.78947         0.23851
C          7.46755        -7.23237        -0.21144
C         -6.10428        -8.79824         1.83942
C         -4.94698        -9.51077         1.71574
C         -3.62792        -8.98479         1.34469
C         -2.47333        -9.58377         1.75515
C         -1.13862        -8.86376         1.80692
C          0.13617        -9.63537         1.54142
C          1.33212        -8.99052         1.30935
C          2.58932        -9.71904         1.24809
C          3.79454        -9.08430         1.07330
C          5.06578        -9.77594         1.05441
C          6.23231        -9.16396         0.69880
O          2.59125         1.77947        -3.18562
H          1.74866         2.21586        -3.45756
O         -7.07376         4.61478         1.13261
H         -7.91739         4.50390         1.62190
O         -6.69754        -5.36648        -0.48777
O          4.22768         7.78158         3.15611
H          5.09657         7.35303         2.99826
O          1.36246         8.80674        -0.65400
H          0.53823         9.34328        -0.59240
O         -7.61603         2.07404        -2.44800
O          4.75114        -1.73112        -3.28061
H          5.60393        -2.08316        -3.63167
O          3.62988         3.07260         0.97802
H          2.80702         3.45219         1.35455
O          0.25445        -5.70009         2.19309
O         -0.08454        -0.44975         0.92839
H         -0.86126        -0.82708         1.39547
O          7.17844         2.13442         1.36920
H          7.08640         2.94653         1.91245
O          4.70932        -6.87986         1.81387
O          6.65634        -5.99313        -2.10744
O         -1.46261        -7.48461        -0.36823
O         -1.06633        -8.43710         3.21378
H         -0.80394        -9.21111         3.75494
O         -1.14752         9.00602         0.48557
O          0.05976         2.45956        -2.71978
O          2.57245         6.37785        -1.93853
H          2.12815         7.25566        -1.91076
O         -4.27859        -6.89241         2.71427
H         -3.61783        -6.18741         2.88332
O         -2.62123         7.87928        -1.42817
H         -2.47761         8.83225        -1.24220
O         -5.08328         7.18933        -1.01595
O         -8.84292         1.43526         0.87806
H         -8.17083         0.90991         1.38227
O         -5.75663        -2.66702         1.82054
O         -1.10512        -1.56574        -2.43091
H         -0.19246        -1.46661        -2.78186
O          1.66737        -5.56877        -1.10711
O          6.83699        -3.52775        -2.71531
O        -10.97448        -3.00201         0.41503
H        -10.85850        -2.42552         1.19818
O         -2.53357         2.21301        -2.81875
O         -4.47040        -0.18473         1.57678
H         -5.20672        -0.36906         2.20348
O          5.15204         2.59025        -2.34102
O         -4.32067        -7.64153        -0.49973
O          7.20425        -0.95125        -2.85737
O         -0.77053         4.88386         0.77464
O         -3.32087        -3.59882         2.21542
O         -7.01164        -0.40210         1.13492
O          2.17499        -2.39522        -2.27363
H         12.08234        -1.48988        -0.22317
H         12.05486         0.95916         0.14856
H         10.87631         3.07444         0.19868
H          9.67254         5.21432         0.41344
H          8.44208         7.31424         0.87940
H          7.16249         9.49495         1.19166
H          5.05900        10.50839         2.04841
H          2.60111         9.86293         3.17173
H          0.25368         9.39699         3.53970
H         -2.40952         9.41665         3.60119
H         -4.65098         9.10690         3.77200
H         -6.85640         8.38636         2.99828
H         -8.13610         6.96771         1.38249
H         -9.59655         5.60146        -0.29728
H        -10.89221         3.53408        -1.60994
H        -12.04140         1.27097        -1.74964
H        -11.97859        -1.15235        -1.30964
H        -10.19833        -3.22624        -1.47400
H         -9.73826        -4.94839         0.90242
H         -8.42100        -7.53000         1.35272
H         -7.02003        -9.36034         2.08638
H         -4.98084       -10.58027         1.98111
H         -2.54387       -10.50439         2.36124
H          0.13523       -10.72515         1.70162
H          2.56403       -10.81148         1.38180
H          5.07480       -10.84235         1.32502
H          7.16488        -9.74805         0.68861
H          8.39668        -7.82400        -0.21230
H          9.62699        -5.60656        -0.49301
H         10.86501        -3.57082        -0.61363
