         204
 CSIRO Nanostructure Databank - Neutral Graphene Oxide Data Set
C        -10.80735         0.73425         1.12836
C         -9.65270         1.44926         0.64578
C         -8.56674         0.72113         0.01934
C         -7.40516         1.45018        -0.39712
C         -6.31745         0.77964        -1.23783
C         -4.96971         1.45592        -1.06376
C         -3.80090         0.76005        -0.89441
C         -2.50818         1.42620        -0.90582
C         -1.28434         0.72895        -0.81111
C         -0.02988         1.43282        -0.60961
C          1.21065         0.70042        -0.52123
C          2.45516         1.40817        -0.35847
C          3.70166         0.70947        -0.45548
C          4.93438         1.42203        -0.28544
C          6.18272         0.72754        -0.41450
C          7.42167         1.42291        -0.12576
C          8.64758         0.70960        -0.07509
C          9.82207         1.33068         0.47164
C         11.00407         0.51336         0.69126
C         -9.59366         2.82687         0.78098
C         -8.45692         3.56065         0.35114
C         -7.33922         2.84863        -0.22332
C         -6.18648         3.62363        -0.61367
C         -5.00649         2.96116        -1.30798
C         -3.71571         3.66848        -0.96117
C         -2.47993         2.87976        -1.07953
C         -1.17017         3.61655        -0.75520
C         -0.02035         2.80581        -0.39257
C          1.17937         3.46086         0.13987
C          2.46494         2.78056        -0.04528
C          3.67458         3.49889         0.12992
C          4.91820         2.80759         0.02311
C          6.14676         3.50222         0.30230
C          7.38342         2.78782         0.27553
C          8.61247         3.47130         0.63957
C          9.81533         2.69037         0.74596
C         -8.43668         4.96030         0.45135
C         -7.31305         5.70646         0.04527
C         -6.16202         4.99900        -0.45648
C         -4.97490         5.80270        -0.95935
C         -3.68149         5.02888        -0.79592
C         -2.44505         5.75314        -0.54668
C         -1.22675         5.04650        -0.40513
C         -0.04306         5.71732        -0.05176
C          1.17474         4.96502         0.28822
C          2.46453         5.66441         0.29131
C          3.66572         4.92518         0.32192
C          4.90850         5.61707         0.50890
C          6.11523         4.88610         0.60472
C          7.32800         5.57347         1.17399
C          8.60649         4.82683         0.93302
C         -7.30396         7.12179         0.13357
C         -6.12894         7.87037        -0.06229
C         -4.91267         7.20514        -0.39872
C         -3.69419         7.88423        -0.28534
C         -2.44475         7.16300        -0.34775
C         -1.22459         7.85471        -0.11495
C         -0.00529         7.13061         0.01352
C          1.24182         7.81314         0.21588
C          2.46646         7.08252         0.31190
C          3.71493         7.77363         0.44430
C          4.91426         7.04808         0.57943
C          6.18702         7.74736         0.68912
C          7.35318         7.04801         0.87687
C         -6.09959         9.28586         0.18886
C         -4.91973         9.97861         0.18475
C         -3.66746         9.29780         0.00501
C         -2.44804         9.97572         0.11015
C         -1.20660         9.28408         0.05767
C          0.03143         9.94635         0.21570
C          1.25566         9.24100         0.26924
C          2.51651         9.91480         0.37781
C          3.71592         9.21733         0.44853
C          4.99657         9.89060         0.51369
C          6.16395         9.19686         0.60123
C        -10.85759        -0.62110         1.08344
C         -9.77247        -1.39078         0.51314
C         -8.67933        -0.68565        -0.11364
C         -7.57836        -1.46697        -0.71686
C         -6.29929        -0.76142        -1.10989
C         -5.03531        -1.51103        -0.90256
C         -3.78826        -0.71977        -0.55066
C         -2.52331        -1.41359        -1.02482
C         -1.24763        -0.70026        -0.84556
C         -0.03802        -1.41142        -0.77033
C          1.20727        -0.69981        -0.63715
C          2.45432        -1.41790        -0.63427
C          3.69806        -0.69344        -0.61611
C          4.94815        -1.39773        -0.66992
C          6.17190        -0.65690        -0.67251
C          7.41002        -1.39539        -0.91944
C          8.74968        -0.65282        -0.57541
C          9.89415        -1.50667        -0.17038
C         11.02276        -0.82265         0.43978
C         -9.80369        -2.77156         0.65609
C         -8.74282        -3.64038         0.14096
C         -7.54339        -2.95653        -0.51245
C         -6.25155        -3.66210        -0.53469
C         -5.02229        -2.89580        -0.74271
C         -3.76558        -3.63508        -0.65545
C         -2.51015        -2.91730        -0.95195
C         -1.22756        -3.59541        -0.71106
C         -0.02859        -2.85498        -0.70730
C          1.21845        -3.53927        -0.51976
C          2.44764        -2.81695        -0.60661
C          3.71425        -3.59952        -0.81115
C          4.97963        -2.80341        -0.68817
C          6.21317        -3.52457        -0.66458
C          7.41522        -2.84852        -0.83892
C          8.72568        -3.56872        -1.06079
C          9.86624        -2.85888        -0.34899
C         -8.53097        -4.98545         0.65568
C         -7.38053        -5.69371         0.32722
C         -6.22570        -5.01672        -0.24492
C         -4.98674        -5.81968        -0.55832
C         -3.71764        -5.00342        -0.45852
C         -2.45975        -5.71102        -0.35491
C         -1.22736        -4.99033        -0.44844
C          0.01706        -5.66535        -0.22739
C          1.22174        -4.92832        -0.24116
C          2.46359        -5.57905         0.22738
C          3.77419        -4.84543         0.04784
C          5.05016        -5.59002         0.00364
C          6.20486        -4.96803        -0.41583
C          7.47314        -5.69286        -0.44928
C          8.64727        -5.03559        -0.72603
C         -7.28063        -7.07769         0.68401
C         -6.08579        -7.79797         0.58754
C         -4.89433        -7.15393         0.13372
C         -3.66205        -7.81111         0.20581
C         -2.43194        -7.10089        -0.06415
C         -1.18488        -7.78496         0.09494
C          0.03535        -7.07505         0.02071
C          1.29162        -7.75803         0.23453
C          2.47514        -7.03723         0.37586
C          3.73849        -7.72955         0.66595
C          5.07411        -6.98250         0.47908
C          6.29473        -7.77095         0.20970
C          7.43921        -7.12184        -0.20061
C         -6.01432        -9.17496         1.00155
C         -4.82677        -9.85201         0.98381
C         -3.60609        -9.19162         0.61707
C         -2.38062        -9.86913         0.64104
C         -1.16269        -9.19757         0.38905
C          0.08032        -9.87961         0.46449
C          1.29877        -9.19935         0.38923
C          2.55758        -9.88427         0.47699
C          3.75716        -9.20218         0.56942
C          5.03657        -9.86523         0.57229
C          6.22237        -9.19915         0.40178
O         -5.17331         3.19781        -2.74291
H         -5.84092         2.53850        -3.06403
O         -3.68677        -0.76937         0.91623
H         -4.36950        -0.17596         1.29380
O         -5.17434         5.97100        -2.39889
H         -5.17861         5.05839        -2.79014
O         -7.21217        -1.28340        -2.14188
O          0.99139         4.08155         1.46918
O         -2.61145        -2.18420        -2.24969
O         -6.71283         1.07695        -2.61688
H         -7.24851         0.29998        -2.92107
O          4.50039        -7.19576         1.80472
O         -8.56750        -3.58943        -1.33632
O         -1.59631         3.35580        -2.14328
O          7.14963         5.49209         2.65897
H          7.04710         4.54124         2.88036
O          9.02630        -3.47341        -2.49457
H          8.95048        -2.51475        -2.72321
O          3.11513        -4.79864         1.33025
O         -5.09188        -6.16108        -1.99163
H         -5.22426        -5.32226        -2.48415
O          8.29477        -0.83369        -1.95526
O          3.66913        -4.12340        -2.18896
H          3.68307        -3.35710        -2.80084
H         11.91913        -1.41656         0.67178
H         11.89038         1.00099         1.12336
H         10.73668         3.18236         1.09167
H          9.54654         5.31309         1.23682
H          8.30935         7.58600         0.96732
H          7.12299         9.73382         0.65037
H          5.00835        10.99043         0.48542
H          2.52800        11.01533         0.39041
H          0.04177        11.04289         0.30923
H         -2.44828        11.06106         0.29264
H         -4.91008        11.06227         0.37271
H         -7.04844         9.80438         0.39048
H         -8.21904         7.63685         0.46342
H         -9.31766         5.48297         0.85297
H        -10.43889         3.36612         1.23405
H        -11.63343         1.31310         1.56647
H        -11.72166        -1.16521         1.49116
H        -10.62795        -3.23178         1.22053
H         -9.31236        -5.45859         1.26865
H         -8.17582        -7.57645         1.08489
H         -6.93893        -9.67725         1.32128
H         -4.78410       -10.90914         1.28429
H         -2.35887       -10.93649         0.90781
H          0.07927       -10.96696         0.63366
H          2.55888       -10.98498         0.46489
H          5.04317       -10.96312         0.64577
H          7.15887        -9.77379         0.34337
H          8.36355        -7.69915        -0.35696
H          9.58668        -5.60870        -0.76654
H         10.74354        -3.45604        -0.05384
