         424
 CSIRO Nanostructure Databank - Neutral Graphene Oxide Data Set
C          1.28779         3.93238         2.32130
C          0.06806         4.55081         1.96142
C          1.10834         6.78768         1.83119
C         -0.01825         5.88361         1.62540
C          1.12559         8.16963         1.29461
C         -0.00114         8.77777         0.80160
C          1.16057        10.91303         0.38941
C         -0.00714        10.14130         0.40815
C          1.15351        12.30399        -0.03489
C         -0.04660        12.99172        -0.30421
C          1.14661        15.07097        -0.76010
C         -0.05088        14.33509        -0.65577
C          1.15098        16.48524        -1.10226
C         -0.04385        17.17487        -1.40479
C          1.13854        19.28573        -1.73968
C         -0.04150        18.53276        -1.72195
C          1.13140        20.71271        -2.05267
C         -0.05586        21.38983        -2.43454
C          1.08518        23.53929        -2.42720
C         -0.07850        22.77398        -2.58306
C          1.04914        25.04823        -2.50941
C         -0.09310        25.59947        -1.70375
C          1.08279        27.68553        -1.18266
C         -0.06207        26.84975        -1.14403
C          1.09064        29.01101        -0.66969
C         -0.11591        29.72903        -0.43877
C          1.12891        31.64494         0.41096
C         -0.09079        31.02665         0.02413
C          1.17454        33.03281         0.83728
C          0.01917        33.85755         0.78513
C          1.30572        35.84284         1.36966
C          0.08084        35.21838         1.02903
C          1.39365        37.24694         1.60859
C          3.75573         4.00116         2.36812
C          2.50037         4.63503         2.27009
C          3.71001         6.79242         1.74594
C          2.46970         6.10305         2.12585
C          3.61794         8.12318         1.02872
C          2.40712         8.96639         1.46695
C          3.61656        10.96653         0.53430
C          2.40429        10.30124         0.74496
C          3.62385        12.33999         0.10413
C          2.38612        13.01221        -0.14497
C          3.61213        15.10578        -0.62642
C          2.37865        14.39706        -0.51105
C          3.61136        16.51332        -0.89852
C          2.37690        17.20269        -1.12886
C          3.57374        19.35039        -1.36098
C          2.38449        18.62563        -1.41756
C          3.57501        20.85287        -1.40091
C          2.32071        21.45839        -1.96820
C          3.55264        23.58090        -2.28302
C          2.31923        22.86065        -2.21694
C          3.55417        25.00538        -2.18684
C          2.33999        25.68879        -2.07009
C          3.59588        27.70506        -1.21647
C          2.33309        27.17641        -1.85427
C          3.59008        28.91616        -0.53711
C          2.33528        29.63029        -0.31439
C          3.55467        31.36362         1.03485
C          2.32866        30.89014         0.30279
C          3.61786        32.85571         1.22589
C          2.41734        33.62217         1.21417
C          3.68951        35.63158         1.90559
C          2.47860        35.03600         1.50319
C          3.77224        37.03563         2.11338
C          2.58976        37.82886         1.95092
C          6.20958         4.08869         2.38052
C          4.96267         4.72139         2.22945
C          6.16346         6.83879         1.62276
C          4.91624         6.12633         1.84015
C          6.13276         8.23016         1.28197
C          4.90542         8.91182         1.06643
C          6.11889        10.98120         0.55437
C          4.88476        10.28005         0.75032
C          6.10587        12.36981         0.12767
C          4.85271        13.04050        -0.05308
C          6.07672        15.11252        -0.62817
C          4.84504        14.42186        -0.42969
C          6.06857        16.51042        -0.94342
C          4.84428        17.20660        -0.98063
C          6.09047        19.32501        -1.52514
C          4.85830        18.70423        -0.91891
C          6.03925        20.71033        -1.89235
C          4.84067        21.41941        -1.99370
C          6.08075        23.59181        -2.17488
C          4.81514        22.81755        -2.59119
C          6.04993        25.09182        -2.64882
C          4.80663        25.74243        -2.08345
C          6.07314        27.64020        -1.10417
C          4.82837        27.00974        -1.49497
C          6.08153        28.87181        -0.41687
C          4.83744        29.52417        -0.10769
C          6.07626        31.37188         0.95013
C          4.84991        30.75888         0.55156
C          6.04370        32.66297         1.54487
C          4.84343        33.41165         1.62015
C          6.17360        35.46072         2.28311
C          4.84452        34.75424         2.30937
C          6.21383        36.87768         2.47914
C          5.01325        37.63397         2.44157
C          8.66488         4.15673         2.41936
C          7.42947         4.78971         2.21390
C          8.61963         6.92568         1.75005
C          7.39443         6.19168         1.84159
C          8.58933         8.30308         1.48362
C          7.35951         8.96018         1.21386
C          8.60614        11.00579         0.56014
C          7.34262        10.32788         0.79785
C          8.59690        12.27461        -0.25098
C          7.30796        13.04560        -0.13568
C          8.54725        15.10662        -0.75131
C          7.30958        14.41712        -0.49639
C          8.50303        16.44387        -1.24464
C          7.30105        17.17178        -1.28666
C          8.48902        19.22794        -2.06578
C          7.27870        18.57828        -1.66041
C          8.51288        20.63597        -2.24258
C          7.28871        21.37207        -2.22575
C          8.50069        23.25560        -3.03505
C          7.28568        22.73463        -2.57026
C          8.53950        25.40978        -2.71245
C          7.30831        25.84745        -2.24715
C          8.55637        27.59823        -1.05872
C          7.31082        27.00950        -1.42899
C          8.56922        28.82152        -0.31931
C          7.32597        29.46439        -0.01441
C          8.57566        31.26715         1.08361
C          7.33295        30.70152         0.68897
C          8.59565        32.50946         1.86787
C          7.28783        33.24832         2.08885
C          8.61544        35.33670         2.47571
C          7.35208        34.71241         2.28392
C          8.65502        36.75262         2.71962
C          7.46967        37.49668         2.69948
C         11.13085         4.18882         2.43400
C          9.89858         4.84617         2.25918
C         11.09900         6.92599         1.69441
C          9.88746         6.24428         1.92183
C         11.10214         8.34544         1.42880
C          9.83696         9.12769         1.66590
C         11.06337        11.11715         0.69424
C          9.80196        10.41847         0.88449
C         11.04805        12.50198         0.27912
C          9.84141        13.11543        -0.07232
C         11.03879        15.18848        -0.71564
C          9.80123        14.47328        -0.50382
C         11.02591        16.42381        -1.36733
C          9.75528        17.00543        -1.77384
C         11.01463        19.22171        -2.27993
C          9.73709        18.48641        -2.26138
C         10.99681        20.60446        -2.29059
C          9.76252        21.32736        -2.39178
C         10.97232        23.54505        -2.88737
C          9.74340        22.69943        -2.73552
C         10.99274        24.98584        -2.42870
C          9.79687        25.75511        -2.16759
C         11.01753        27.50547        -0.92866
C          9.79945        26.95161        -1.37200
C         11.05136        28.71959        -0.20516
C          9.80783        29.39800         0.08801
C         11.05945        31.24664         1.20659
C          9.81308        30.64354         0.78569
C         11.10352        32.52372         1.78569
C          9.86857        33.24739         2.00277
C         11.07992        35.22447         2.87226
C          9.83391        34.58307         2.39721
C         11.10517        36.70364         2.98243
C          9.91698        37.40650         2.92281
C         13.59698         4.20138         2.36953
C         12.35926         4.85725         2.21131
C         13.56496         6.89307         1.48354
C         12.34958         6.23424         1.78637
C         13.52445         8.24493         0.81110
C         12.26587         9.01655         1.12328
C         13.53729        11.20469         1.09960
C         12.25961        10.43847         0.91032
C         13.50447        12.57681         0.48222
C         12.30767        13.22548         0.18525
C         13.50303        15.25362        -0.59846
C         12.29717        14.56315        -0.36269
C         13.53896        16.49837        -1.28427
C         12.28815        17.00201        -1.96201
C         13.46954        19.18236        -2.29931
C         12.28549        18.51401        -2.14513
C         13.46751        20.60607        -2.81758
C         12.29649        21.36731        -2.19059
C         13.52355        23.52855        -2.55554
C         12.25509        22.78846        -2.73147
C         13.46942        24.89788        -2.30124
C         12.21866        25.53705        -2.03231
C         13.53469        27.47615        -0.97949
C         12.26046        26.67031        -1.02494
C         13.52602        28.69325        -0.21989
C         12.30122        29.26972         0.20673
C         13.60025        31.23167         1.14133
C         12.32030        30.41848         1.18114
C         13.58983        32.55124         1.74499
C         12.38299        33.14618         2.10953
C         13.68634        35.20453         3.07987
C         12.37286        34.45578         2.81710
C         13.57777        36.71536         2.92114
C         12.35838        37.37432         3.03510
C         16.05069         4.20258         2.29420
C         14.81157         4.86196         2.09970
C         16.03915         6.88262         1.29794
C         14.79489         6.22520         1.62231
C         16.04682         8.30770         0.96881
C         14.80763         9.04004         0.94181
C         16.04051        11.15125         0.67343
C         14.80951        10.42377         0.83976
C         16.04423        12.55145         0.45239
C         14.77292        13.30273         0.49312
C         16.02685        15.28919        -0.56330
C         14.76555        14.73666        -0.05592
C         15.98983        16.52735        -1.20349
C         14.74990        17.17892        -1.44979
C         16.02806        19.25695        -2.22555
C         14.74104        18.66541        -1.69104
C         16.00822        20.67977        -2.50210
C         14.76590        21.37269        -2.58587
C         16.00209        23.52360        -2.72269
C         14.73789        22.77768        -2.62867
C         15.99220        25.03231        -2.57949
C         14.68098        25.79695        -2.44259
C         15.97219        27.57335        -1.19086
C         14.72553        26.92645        -1.44116
C         15.96988        28.79943        -0.46831
C         14.77741        29.35728         0.03448
C         16.09930        31.18833         1.22372
C         14.77906        30.62768         0.74366
C         16.05966        32.65075         1.57380
C         14.86503        33.26639         1.89972
C         16.05806        35.39281         2.33967
C         14.87883        34.63120         2.36215
C         16.01326        36.82135         2.61333
C         14.77525        37.45310         2.82165
C         18.51584         4.20787         2.25364
C         17.26174         4.84257         1.99730
C         18.51898         6.79104         1.09268
C         17.23636         6.17366         1.44839
C         18.53326         8.27536         0.78913
C         17.25395         9.00673         0.83520
C         18.50477        11.12409         0.46671
C         17.28278        10.43046         0.65128
C         18.50084        12.52410         0.24898
C         17.25208        13.23775         0.16000
C         18.49124        15.24833        -0.60631
C         17.25608        14.58905        -0.32274
C         18.50504        16.54899        -1.19145
C         17.24343        17.08044        -1.83125
C         18.49389        19.23376        -2.22061
C         17.23109        18.57942        -2.04301
C         18.51044        20.62495        -2.80878
C         17.24175        21.39623        -2.56062
C         18.48990        23.54408        -2.53033
C         17.27129        22.79638        -2.58017
C         18.47373        24.94971        -2.30643
C         17.24591        25.67486        -2.15935
C         18.46945        27.65142        -1.35470
C         17.21426        26.96882        -1.60560
C         18.49106        28.91263        -0.77714
C         17.22906        29.57542        -0.42675
C         18.58268        31.51653         0.59815
C         17.26877        30.87067         0.31225
C         18.58771        32.79643         1.18092
C         17.37880        33.28832         1.95127
C         18.49138        35.54304         2.01462
C         17.31173        34.78874         2.02708
C         18.44304        36.95433         2.32300
C         17.21514        37.56447         2.59696
C         19.73112         4.85769         2.04304
C         21.00313         6.86323         1.26308
C         19.77739         6.15169         1.50915
C         21.02914         8.19665         0.99024
C         19.79565         9.05422         1.12943
C         21.00273        11.22681         0.66527
C         19.81730        10.36379         0.32410
C         20.95989        12.56566         0.50237
C         19.73280        13.25005         0.14498
C         20.93669        15.35816        -0.41589
C         19.73009        14.60892        -0.25969
C         20.92357        16.63236        -0.92308
C         19.70922        17.24628        -1.36265
C         20.93649        19.30741        -2.12639
C         19.70189        18.58920        -1.93545
C         20.96600        20.65696        -2.38069
C         19.76644        21.41472        -2.53280
C         20.96082        23.59092        -2.49310
C         19.75012        22.82071        -2.53667
C         20.94543        24.94904        -2.33868
C         19.71708        25.66691        -2.14636
C         20.90024        27.84169        -1.77350
C         19.70784        27.01603        -1.75479
C         20.93521        29.04988        -1.16721
C         19.80288        29.46701        -0.26653
C         20.96900        31.65930         0.24464
C         19.77715        30.93082         0.12821
C         20.96661        32.96042         0.73748
C         19.78693        33.54638         1.23326
C         20.91774        35.70024         1.80462
C         19.76619        34.93256         1.71494
C         20.86586        37.07652         2.14699
C         19.66303        37.69894         2.37668
O         11.57125        34.46888         4.05534
O         16.06751        24.42556        -3.91479
O          1.68948         6.75104         3.19600
O         14.76992        14.47025         1.38584
O          9.67691        17.36657        -3.20751
O         11.72410        23.07690        -4.07721
O          8.51492        24.46101        -3.74668
O          7.87021        32.43442         3.16021
O         16.99671        30.91274        -1.11547
O         18.61336         7.32311        -0.29674
O          3.63107        21.31901         0.01351
H          4.20557        20.66263         0.49022
O         17.62373        32.82960         3.33516
H         17.49982        31.84902         3.32591
O         12.36759        29.77019         2.52709
H         12.12681        30.45654         3.18704
O         13.59416        11.45751         2.55772
H         12.86563        12.07516         2.78194
O          4.60226        34.43398         3.73701
H          4.64021        35.28014         4.23228
O         12.28190        25.91718         0.26553
H         12.24425        26.58484         0.98579
O          4.84036        22.65164        -4.04081
H          5.05453        23.54363        -4.41875
O          2.27971        27.75244        -3.21778
H          1.63163        27.19700        -3.72131
O          5.92197        25.11397        -4.09878
H          6.82360        24.93942        -4.46373
O         13.42494         7.95427        -0.63440
H         14.20943         7.41739        -0.87846
O         12.62935        21.47811        -0.77260
H         11.88213        21.90576        -0.30318
O         16.40611        30.46312         2.47568
H         15.60062        30.48960         3.03649
O         19.94433         9.98162        -1.07341
H         19.93697        10.79958        -1.61282
O         13.27196        20.53102        -4.24637
H         13.00308        21.41764        -4.57419
O         17.24925        16.51641        -3.19685
H         17.96247        16.96812        -3.69731
O         12.33867        16.46579        -3.32835
H         11.47778        16.70479        -3.74993
O         20.02540        28.76764         1.01987
H         20.14148        27.81467         0.81647
O          3.37478         7.77910        -0.37507
H          4.18570         7.35361        -0.72555
O          3.37412        30.83416         2.40873
H          4.06734        31.24461         2.97079
O          6.11412        23.66947        -0.73300
H          5.77132        22.82427        -0.36697
O          4.97292        19.01711         0.55782
H          4.32007        18.44282         1.01544
O          2.55299         9.28596         2.87612
H          2.29432         8.47359         3.38126
O          8.63706        11.83691        -1.66334
H          9.47929        11.35062        -1.79356
O          0.83305        25.44276        -3.93253
H          1.45528        24.91420        -4.47750
O         14.00870        35.01014         4.49276
H         13.14144        34.96684         4.96309
O         14.47574        26.47255        -3.72274
H         14.78777        25.84731        -4.41772
O         18.52118        20.40364        -4.28051
H         18.44465        21.28470        -4.70656
O         14.66988        19.22916        -0.31303
H         14.14022        20.06169        -0.34850
O          9.85608         9.50999         3.09194
H          9.00767         9.96379         3.28287
O         19.69908         9.45012         2.52583
H         19.82121         8.65371         3.08356
H          1.30375         2.85023         2.51403
H         -0.82565         3.91814         1.85911
H         -0.93767         6.26590         1.16100
H         -0.94624         8.21993         0.72902
H         -0.96326        10.57250         0.08389
H         -1.01087        12.47292        -0.22077
H         -1.01827        14.82070        -0.83959
H         -1.00519        16.64518        -1.40205
H         -1.00390        19.01052        -1.94928
H         -0.99257        20.83351        -2.57144
H         -1.02871        23.26970        -2.82779
H         -0.97958        24.96798        -1.54601
H         -0.94880        27.19547        -0.59122
H         -1.07871        29.26874        -0.70007
H         -1.04117        31.56684         0.12548
H         -0.95171        33.42229         0.51403
H         -0.83021        35.82957         0.95341
H          0.48709        37.86094         1.50500
H          3.79623         2.91735         2.55330
H          2.65340        38.91411         2.11656
H          6.23969         3.02399         2.65640
H          5.06127        38.72167         2.59681
H          8.68284         3.09352         2.70222
H          7.51076        38.58303         2.86717
H         11.14178         3.12811         2.72544
H          9.93401        38.50378         3.00174
H         13.61646         3.15319         2.70238
H         12.35318        38.47475         3.07920
H         16.05906         3.17882         2.69605
H         14.73090        38.55243         2.85663
H         18.51074         3.18940         2.66747
H         17.18438        38.63767         2.83718
H         20.67116         4.35039         2.30530
H         21.94582         6.29502         1.29869
H         21.99436         8.68611         0.79532
H         21.94593        10.74234         0.95610
H         21.86803        13.15816         0.68258
H         21.89915        14.91268        -0.13150
H         21.87602        17.17054        -1.01231
H         21.89209        18.78291        -1.99809
H         21.94169        21.16245        -2.40185
H         21.92925        23.08114        -2.58400
H         21.89911        25.49251        -2.29477
H         21.77048        27.50120        -2.35326
H         21.84192        29.66609        -1.24022
H         21.92468        31.21832        -0.06882
H         21.91505        33.51324         0.76461
H         21.90169        35.25793         1.59828
H         21.80385        37.64638         2.20544
H         19.62291        38.77009         2.62141
