         269
 CSIRO Nanostructure Databank - Neutral Graphene Oxide Data Set
C        -10.99413         0.71119        -1.12483
C        -10.06715         1.45623        -0.23886
C         -8.92309         0.68605         0.38833
C         -7.71519         1.46018         0.86756
C         -6.36969         0.82130         0.53059
C         -5.17475         1.47066         1.30572
C         -3.91518         0.76089         0.79371
C         -2.72320         1.51381         0.28717
C         -1.44827         0.80619        -0.14056
C         -0.17557         1.57969        -0.21787
C          1.08028         0.85094        -0.56887
C          2.38989         1.60652        -0.48861
C          3.67952         0.86628        -0.65340
C          4.93104         1.56768        -1.15504
C          6.23138         0.81553        -1.02650
C          7.51434         1.56880        -0.79626
C          8.63846         0.88705        -0.08039
C          9.47608         1.71888         0.87161
C         10.76464         1.00356         1.20475
C         -9.87790         2.90966        -0.41668
C         -8.85759         3.62768         0.12077
C         -7.74890         2.98353         0.88714
C         -6.44962         3.77992         1.06183
C         -5.13910         3.01012         1.12557
C         -3.85640         3.66700         0.74994
C         -2.70523         2.97662         0.47389
C         -1.36401         3.62059         0.53958
C         -0.14256         2.91120         0.07708
C          1.04108         3.75206        -0.30703
C          2.30793         3.07831        -0.76737
C          3.61040         3.82687        -0.99771
C          4.89923         3.09046        -1.26017
C          6.22497         3.84459        -1.20975
C          7.48188         3.07970        -0.86799
C          8.65945         3.79026        -0.29867
C          9.61215         3.15440         0.41738
C         -8.84774         5.12639        -0.12367
C         -7.48278         5.80608        -0.19535
C         -6.56666         5.34324         0.92071
C         -5.06252         5.99455         0.98318
C         -3.88153         5.14250         0.54033
C         -2.56082         5.85418         0.46970
C         -1.29811         5.09871         0.70118
C         -0.02495         5.83552         0.50079
C          1.09554         5.18768         0.09030
C          2.36848         5.94344        -0.11280
C          3.61329         5.30213        -0.66934
C          4.92859         5.99826        -0.50597
C          6.18205         5.40676        -1.16539
C          7.45706         6.00446        -0.54534
C          8.77363         5.25276        -0.67262
C         -7.35383         7.01864        -0.78925
C         -6.21590         7.92440        -0.50758
C         -5.06409         7.37914         0.27621
C         -3.71374         7.94726        -0.05692
C         -2.50144         7.33359         0.53512
C         -1.33285         8.01673         0.60371
C         -0.06106         7.28895         0.83528
C          1.21449         8.05295         0.81798
C          2.48572         7.28785         0.55818
C          3.76063         8.02704         0.37110
C          4.94924         7.31248        -0.16556
C          6.19989         8.14323        -0.38975
C          7.43646         7.30039        -0.18168
C         -6.02088         9.21384        -1.23240
C         -4.90139         9.96224        -1.12000
C         -3.62626         9.38063        -0.62155
C         -2.48623        10.13424        -0.17573
C         -1.33898         9.53545         0.61019
C          0.02755        10.16175         0.34477
C          1.19666         9.51826         0.55892
C          2.52564        10.22562         0.80910
C          3.74496         9.54129         0.15937
C          5.06332        10.08583         0.67240
C          6.19712         9.41783         0.42286
C        -10.97112        -0.63145        -1.26651
C         -9.92296        -1.49152        -0.67056
C         -8.81392        -0.79028         0.07018
C         -7.44615        -1.39139        -0.08032
C         -6.35094        -0.71038         0.69649
C         -5.07926        -1.45138         0.96027
C         -3.76186        -0.68913         1.26219
C         -2.49460        -1.40565         0.71460
C         -1.44582        -0.69650        -0.12310
C         -0.16072        -1.44912        -0.36682
C          1.11829        -0.64755        -0.47543
C          2.43912        -1.31641        -0.07004
C          3.62847        -0.66332        -0.86942
C          4.90714        -1.30590        -0.35300
C          6.19509        -0.56938        -0.41596
C          7.48389        -1.35557        -0.35753
C          8.64296        -0.58761         0.14631
C          9.72334        -1.18508         0.73700
C         10.82892        -0.34691         1.20282
C         -9.68335        -2.86046        -1.22041
C         -8.52015        -3.53370        -1.05947
C         -7.30654        -2.79258        -0.60115
C         -6.03299        -3.55876        -0.28577
C         -4.93844        -2.86814         0.46894
C         -3.76156        -3.63823         1.00839
C         -2.46235        -2.90438         0.77781
C         -1.40681        -3.67250         0.04700
C         -0.13505        -2.93855        -0.27580
C          1.14709        -3.55142         0.25966
C          2.37211        -2.83791        -0.31468
C          3.66039        -3.58136        -0.48414
C          4.90997        -2.81167        -0.13381
C          6.19130        -3.55182         0.11477
C          7.48560        -2.84898        -0.17587
C          8.74678        -3.55871         0.25611
C          9.88109        -2.67199         0.74765
C         -8.36822        -5.00525        -1.45563
C         -7.45899        -5.70296        -0.39668
C         -6.02381        -5.09418        -0.40173
C         -5.13968        -5.82738         0.69478
C         -3.79320        -5.13028         0.97323
C         -2.48608        -5.88862         0.85682
C         -1.35959        -5.15766         0.17601
C         -0.05088        -5.88937        -0.16190
C          1.20948        -5.08975         0.20907
C          2.48273        -5.81738        -0.05598
C          3.72269        -5.11563        -0.60471
C          4.95486        -5.80645        -0.04412
C          6.21311        -5.06087         0.20627
C          7.52031        -5.77772         0.24930
C          8.67773        -5.01650         0.48449
C         -7.40896        -7.20507        -0.50014
C         -6.32148        -8.04775         0.13343
C         -5.00277        -7.28056         0.23304
C         -3.73483        -8.05626         0.35941
C         -2.46057        -7.37135         0.71847
C         -1.19079        -8.05960         0.34711
C         -0.03054        -7.35003         0.26970
C          1.29025        -8.04963         0.41537
C          2.44413        -7.31421        -0.25373
C          3.74489        -8.03892        -0.37771
C          5.03284        -7.25035        -0.45258
C          6.34473        -7.95697        -0.29137
C          7.51726        -7.18486         0.16374
C         -6.07042        -9.39092        -0.53144
C         -4.93522       -10.08699        -0.36513
C         -3.77322        -9.57706         0.46553
C         -2.42836       -10.19309         0.13096
C         -1.21227        -9.52157         0.19909
C          0.03686       -10.18879        -0.01829
C          1.28885        -9.52256         0.06334
C          2.51472       -10.17176        -0.04435
C          3.82076        -9.44621         0.21639
C          5.11377       -10.12509        -0.20270
C          6.27501        -9.44851        -0.28542
O          7.62056        -2.26014        -1.50318
O          5.39606        -3.04229         1.22668
O          7.15268         3.44986        -2.24777
O          0.60052         7.66208         2.10375
O         -3.39836         8.14035        -1.44827
O         -2.27030        -6.71896         2.03019
O          8.71105         1.12585        -1.51834
O         -4.89005        -2.97236        -0.99561
O         -1.78920         0.00736        -1.33392
O         -7.20581         5.78110         2.06131
O         -7.98033         2.17070         2.09049
O         -1.23046         4.24917         1.89066
O          4.07157         3.55208        -2.35830
O         -1.92624        -4.50739        -1.02705
O          0.57472        -7.41289         2.66782
H          0.91952        -6.48814         2.76664
O          2.70016         6.05087        -1.54142
O          3.55226        -0.89082        -2.26827
H          2.67676        -0.58336        -2.60184
O          1.31881         3.48533        -1.73890
O         -5.76243         3.58216         2.32233
O         -4.17081        -7.50690        -0.93526
O         -4.81569         6.22822         2.35612
H         -5.72687         6.31923         2.76401
O          5.32854        -5.52973         1.31458
O          2.70883        10.22641         2.23060
H          2.82498         9.28983         2.51615
O         -5.36354         1.19387         2.69008
H         -5.94839         1.91216         3.04821
O         -7.04987        -1.62513        -1.46589
O         -0.18653        -2.32617        -1.56914
O        -10.10337         1.00271         1.15678
O          3.40297         7.46805         1.69488
O          5.42376        -0.59790         0.82237
O         -6.00721         8.23985         0.94428
O          1.09222         0.02478        -1.77754
O         -6.08572        -1.27522         2.00655
O          2.64156        -1.15093         1.33374
H          3.03357        -0.26110         1.50965
O          2.85890        -7.86963        -1.52343
O          3.98152        -9.31819         1.66011
H          3.13811        -8.99452         2.05850
O         -9.64944         5.42658        -1.25821
H         -9.95643         6.35203        -1.19006
O          1.62613        -8.05155         1.91187
O          8.68098         1.74434         2.10743
H          9.23767         2.12631         2.81814
O         -5.85066        -5.85621         1.95145
H         -5.37862        -5.23894         2.57078
O         -3.79944         1.03804        -0.61796
O          5.84108        -7.45773        -1.63001
O          6.20713         5.90680        -2.47486
O         -3.87110        -4.37631         2.24344
O         -6.30973         1.09597        -0.88154
H         -5.52703         0.66425        -1.29237
O         -9.79866        -1.55946         0.80612
O          0.04789        -5.97876        -1.60793
H         -0.67939        -5.43945        -2.00413
O         -1.87001        -2.12309         1.83299
O         -5.45220        -5.39693        -1.68193
H         -4.75868        -4.72338        -1.87607
O         -3.29448         5.45802        -0.75653
O          9.79701         5.89697         0.07738
H          9.53174         5.91767         1.01911
O          1.07118        -3.21271         1.66002
H          1.84337        -3.61287         2.11897
O          2.84939        -3.14733        -1.63365
O         -4.03932        -9.92048         1.85407
H         -3.26160        -9.66106         2.39203
O          2.05430        -5.53309         1.31986
O          6.14152         8.51661        -1.80087
H          6.16529         7.64307        -2.30426
O          3.79794        -5.41902        -2.00580
H          3.16450        -4.84276        -2.49013
O         -7.88568        -5.14358        -2.78089
H         -6.90018        -5.09132        -2.76934
O          3.25009         1.33367         0.67517
O          5.56261         0.93793        -2.30424
O         -1.61815         9.92837         1.99945
H         -0.89413         9.55498         2.55154
O         -3.57344        -0.67140         2.67587
H         -4.39216        -0.29882         3.08618
O          3.65384         9.75599        -1.26246
H          4.48966         9.41131        -1.67691
O         -6.83988        -8.33541         1.46334
H         -6.67900        -7.54646         2.03167
O          9.92611        -3.24082        -0.57415
O         -8.15092        -5.37623         0.83523
H         -7.64760        -5.75245         1.59469
H         11.75324        -0.85430         1.51779
H         11.63023         1.59772         1.53575
H         10.47530         3.73515         0.78210
H          9.07121         5.30203        -1.75383
H          8.36024         7.78971         0.16713
H          7.16512         9.81173         0.77010
H          5.07057        11.02650         1.24318
H          2.46612        11.28748         0.46954
H          0.03349        11.25482         0.20648
H         -2.63628        11.21728        -0.03152
H         -4.87086        10.97661        -1.54473
H         -6.90808         9.64462        -1.72197
H         -8.14208         7.38950        -1.46409
H         -9.32755         5.58736         0.79192
H        -10.60611         3.44236        -1.04805
H        -11.74651         1.29836        -1.67375
H        -11.68889        -1.11449        -1.94723
H        -10.55447        -3.38319        -1.64716
H         -9.38013        -5.48426        -1.40961
H         -8.38706        -7.70520        -0.61116
H         -6.88779        -9.81880        -1.13177
H         -4.82779       -11.07500        -0.83906
H         -2.41353       -11.28055        -0.04539
H          0.02434       -11.26933        -0.22761
H          2.53253       -11.26024        -0.21401
H          5.12013       -11.22363        -0.27453
H          7.21160        -9.99493        -0.47953
H          8.45861        -7.72751         0.34266
H          9.64166        -5.53961         0.58060
H         10.63271        -3.09192         1.45354
