         651
 CSIRO Nanostructure Databank - Neutral Graphene Oxide Data Set
C          5.99611        31.88072        -1.20288
C          6.00853        33.24357        -1.14949
C          8.41371        27.62054        -0.73822
C          8.43538        28.96693        -1.05162
C          7.22726        29.74366        -1.09868
C          8.47840        31.87839        -1.41797
C          7.21584        31.11315        -1.25928
C          8.49051        33.31344        -1.07287
C          7.24011        34.00580        -1.06082
C          8.43133        36.12691        -0.83994
C          7.22135        35.39649        -0.96144
C          8.42957        37.54137        -0.69906
C         10.86479        23.37697         0.13317
C         10.85965        24.75430        -0.04823
C          9.64177        25.47011        -0.37912
C         10.87542        27.59350        -0.39552
C          9.61305        26.83866        -0.54048
C         10.92662        29.02288        -0.81166
C          9.73422        29.60202        -1.53610
C         11.00694        31.85712        -1.01548
C          9.78085        31.13954        -1.47937
C         10.97203        33.26455        -0.81043
C          9.70628        33.99329        -0.90304
C         10.86852        36.15705        -0.55395
C          9.67287        35.42228        -0.77425
C         10.85068        37.55624        -0.47114
C          9.61087        38.24694        -0.51993
C         10.82200        40.45338        -0.67439
C          9.57615        39.72920        -0.21680
C         10.76914        41.81730        -0.93858
C         13.41255        19.06969         0.27066
C         13.26219        20.45028         0.74769
C         12.09897        21.26880         0.34965
C         13.19677        23.39506         1.06800
C         12.03641        22.62816         0.52674
C         13.29160        24.83873         0.64585
C         12.10604        25.49181         0.02653
C         13.37628        27.57598        -0.25452
C         12.13716        26.84930        -0.23166
C         13.41264        28.94080        -0.48947
C         12.25441        29.67308        -1.12217
C         13.41344        31.84370        -0.51221
C         12.21189        31.15942        -0.81896
C         13.40139        33.25296        -0.29878
C         12.17121        33.94623        -0.44144
C         13.40753        36.21798        -0.19170
C         12.09710        35.40781        -0.22039
C         13.36360        37.61438        -0.54515
C         12.11192        38.36499        -0.19523
C         13.18860        40.41992        -1.27549
C         12.04572        39.75464        -0.78351
C         13.15693        41.81372        -1.47107
C         11.95096        42.54069        -1.24122
C         13.14638        44.69872        -1.17322
C         11.95403        43.96331        -1.14953
C         13.20396        46.03166        -0.73858
C         15.78099        14.72000         0.86323
C         15.73805        16.14197         0.71893
C         14.58559        16.88786         0.52484
C         15.75486        19.05994         0.95524
C         14.56507        18.34449         0.56739
C         15.79382        20.46329         1.13864
C         14.49824        21.16896         1.30055
C         15.78728        23.43857         1.35068
C         14.44669        22.67809         1.62168
C         15.80596        24.82922         0.78659
C         14.62203        25.47004         0.49453
C         15.88311        27.55997        -0.07468
C         14.64220        26.75518        -0.29584
C         15.87345        28.93737        -0.28079
C         14.64743        29.67181        -0.44688
C         15.90974        31.76468        -0.55417
C         14.65573        31.07809        -0.48445
C         16.03147        33.22027        -0.19034
C         14.69959        33.98137        -0.08398
C         15.85620        36.17346        -0.92498
C         14.70951        35.48394        -0.27213
C         15.79607        37.49524        -1.29873
C         14.49521        38.21394        -1.23655
C         15.64185        40.36951        -2.21723
C         14.39173        39.63627        -1.69697
C         15.68165        41.82349        -1.78508
C         14.39426        42.52947        -1.82846
C         15.68417        44.78891        -1.47982
C         14.38443        44.05847        -1.67985
C         15.68439        46.02178        -0.66684
C         14.43321        46.69927        -0.46458
C         15.63601        48.64578         0.40589
C         14.42608        48.00076         0.06637
C         15.64473        49.96720         0.91065
C         18.25278        10.49146         1.55865
C         18.18488        11.90063         1.62521
C         17.03173        12.60499         1.26080
C         18.19119        14.78196         1.40711
C         16.96375        14.03096         1.18518
C         18.24170        16.13205         1.14287
C         17.04804        16.88121         0.61481
C         18.28997        19.01701         1.32791
C         16.98022        18.28346         1.18471
C         18.28744        20.47423         1.07757
C         17.02629        21.16349         1.13300
C         18.36219        23.32224         0.85294
C         17.07173        22.64174         1.24864
C         18.39393        24.80066         0.57977
C         17.08293        25.50557         0.51569
C         18.42889        27.56702         0.07746
C         17.09737        26.84662         0.15372
C         18.31761        28.96099        -0.46910
C         17.11970        29.63858        -0.47986
C         18.37490        31.72939        -1.06712
C         17.08969        31.06333        -0.68200
C         18.31910        33.23340        -1.15183
C         17.12155        33.92671        -0.96636
C         18.23378        36.08495        -1.70080
C         16.95185        35.32009        -1.51923
C         18.24025        37.45564        -1.89868
C         16.98438        38.22877        -1.77752
C         18.18559        40.34384        -2.37483
C         16.94464        39.59506        -1.99673
C         18.19199        41.87090        -2.33065
C         16.89876        42.60093        -2.10213
C         18.20797        44.55491        -1.01724
C         16.97906        44.06257        -1.71319
C         18.15358        45.83944        -0.31236
C         16.89515        46.57890        -0.22460
C         18.07351        48.55660         0.68862
C         16.87266        47.91950         0.29238
C         18.09239        49.90089         1.10196
C         16.84981        50.61967         1.23714
C         18.07322        52.66390         1.91986
C         16.86602        51.93814         1.74750
C         18.04612        53.97299         2.40553
C         20.67862         6.22436         1.77434
C         20.65808         7.62320         1.87570
C         19.47615         8.36701         1.72858
C         20.69460        10.50370         2.02449
C         19.44082         9.77692         1.82252
C         20.68960        11.90624         2.02461
C         19.35713        12.60949         2.27474
C         20.71185        14.79718         1.84533
C         19.38579        14.10312         1.97482
C         20.73894        16.09729         1.11931
C         19.48461        16.86422         1.12520
C         20.78820        18.94521         0.97003
C         19.53521        18.24322         1.09775
C         20.77475        20.42278         1.23818
C         19.49206        21.10523         0.79361
C         20.76842        23.25166         0.32853
C         19.46006        22.49688         0.20159
C         20.79712        24.66952        -0.08661
C         19.59701        25.36801        -0.10811
C         20.74187        27.49945        -0.88345
C         19.43906        26.74193        -0.73526
C         20.77952        28.87206        -0.98399
C         19.51813        29.68123        -0.99699
C         20.89061        31.82465        -0.84476
C         19.61565        31.09561        -0.40612
C         20.81019        33.22753        -1.39638
C         19.50090        33.87961        -1.56960
C         20.70061        35.98291        -2.39980
C         19.42090        35.27683        -2.02375
C         20.71008        37.45004        -2.26196
C         19.50397        38.13046        -2.14706
C         20.77930        40.34411        -2.21510
C         19.48666        39.59758        -2.39507
C         20.76267        41.84887        -1.97757
C         19.49944        42.71586        -2.14194
C         20.56835        44.27109        -0.28937
C         19.36755        43.83206        -1.10005
C         20.60089        45.73724         0.08935
C         19.32334        46.38965         0.22365
C         20.54423        48.37919         1.35697
C         19.26999        47.71873         0.86911
C         20.53421        49.85581         1.36858
C         19.34471        50.57040         1.35864
C         20.53044        52.73376         1.65431
C         19.35033        52.01884         1.60727
C         20.50480        54.20053         1.80286
C         19.20520        54.84213         2.25859
C         20.46779        56.81954         3.11568
C         19.28350        56.15800         2.91578
C         20.46266        58.19621         3.56802
C         23.12484         3.41473         2.20275
C         21.90616         4.11779         2.03311
C         23.20108         6.16933         1.44234
C         21.89009         5.49735         1.82311
C         23.17295         7.72403         1.53725
C         21.94777         8.28384         2.30997
C         23.13349        10.47924         2.18785
C         21.92406         9.79101         2.15939
C         23.16209        11.88754         1.99746
C         21.92892        12.60925         1.96370
C         23.18515        14.70113         1.64968
C         21.97811        14.03171         1.85355
C         23.23012        16.22216         1.71587
C         22.03343        16.82341         0.97315
C         23.27944        18.97938         0.48738
C         21.98560        18.29214         0.84308
C         23.23904        20.50138         0.55999
C         22.03431        21.12744         0.79708
C         23.59843        23.42203        -0.11760
C         21.86199        22.56767         0.78658
C         23.23808        24.63061        -0.81682
C         22.01238        25.26677        -0.67276
C         23.20484        27.39392        -1.52070
C         21.92927        26.66362        -1.18647
C         23.24680        28.85256        -1.25497
C         22.00388        29.62189        -1.17967
C         23.30109        31.70554        -1.57928
C         22.08062        31.01141        -1.20383
C         23.24906        33.13037        -1.89548
C         22.03286        33.80535        -1.99581
C         23.29430        35.99157        -2.34140
C         21.98715        35.20509        -2.43574
C         23.21133        37.42763        -2.04202
C         21.99020        38.14644        -2.10503
C         23.17568        40.24074        -1.41934
C         21.96523        39.53756        -1.86936
C         23.17881        41.71181        -1.20417
C         21.93592        42.49312        -1.35340
C         23.10114        44.47814        -0.52503
C         21.88920        43.75527        -0.80211
C         23.08270        45.74207         0.07458
C         21.81007        46.35345         0.41751
C         23.10913        48.40604         1.20951
C         21.85247        47.56816         1.34410
C         23.08147        49.81934         1.66198
C         21.79506        50.58297         1.62545
C         23.09787        52.74990         1.75178
C         21.83389        52.06078         1.26925
C         23.10180        54.22134         1.93271
C         21.79045        54.95766         2.01423
C         22.94519        56.81419         3.19113
C         21.76783        56.22407         2.78418
C         22.90239        58.07423         4.03729
C         21.62245        58.85931         3.85373
C         22.81937        60.97649         4.05131
C         21.64183        60.29171         4.03908
C         24.33457         4.08011         2.26125
C         25.59275         6.18034         2.25570
C         24.41204         5.49794         2.07129
C         25.63813         7.62695         2.24972
C         24.43129         8.32125         2.11349
C         25.67640        10.47539         2.17754
C         24.40453         9.75634         2.54798
C         25.66975        11.84935         1.88776
C         24.40223        12.57514         1.79838
C         25.60835        14.63382         1.08967
C         24.38455        13.95388         1.54453
C         25.62774        16.12211         0.99789
C         24.52254        16.87200         1.23237
C         25.77592        19.06569         0.74034
C         24.49619        18.40321         1.28456
C         25.68042        20.40915         0.10091
C         24.50052        21.13216         0.08852
C         25.61021        22.95885        -1.38673
C         24.48924        22.46007        -0.54680
C         25.66019        24.43754        -1.66754
C         24.39318        25.23484        -1.53016
C         25.71327        27.30812        -1.71269
C         24.50625        26.69382        -1.51145
C         25.71060        28.77276        -2.08515
C         24.54001        29.55774        -1.50747
C         25.76319        31.65979        -2.04955
C         24.50151        31.00830        -1.75729
C         25.77827        33.10809        -2.04293
C         24.50652        33.84737        -2.04501
C         25.83642        35.97046        -2.12499
C         24.51957        35.22919        -2.07317
C         25.75240        37.37520        -1.53822
C         24.44335        38.08659        -1.56025
C         25.76367        40.31834        -1.33423
C         24.49681        39.57333        -1.61290
C         25.66566        41.76778        -1.01045
C         24.46638        42.42595        -1.12098
C         25.66657        44.63466        -0.79276
C         24.37429        43.88795        -0.99864
C         25.56173        45.94112        -0.10812
C         24.34180        46.46756         0.28298
C         25.56972        48.52243         1.14094
C         24.29006        47.81380         0.85744
C         25.51361        49.95068         1.46655
C         24.33291        50.61142         1.60939
C         25.52784        52.74195         2.18746
C         24.28705        52.06328         1.81278
C         25.61640        54.25577         2.04223
C         24.31254        54.90227         2.44438
C         25.48599        56.87444         3.27120
C         24.23795        56.18235         2.95309
C         25.46643        58.20982         3.98149
C         24.14416        58.92558         3.89857
C         24.07987        60.28123         3.94493
C         26.85499         8.34192         2.43923
C         28.13474        10.47243         2.20164
C         26.90801         9.76074         2.28588
C         28.15677        11.86065         1.94546
C         26.90751        12.52421         1.75022
C         28.15052        14.74412         1.50931
C         26.91857        13.90190         1.24004
C         28.20710        15.98010         0.63827
C         26.88353        16.72310         0.48516
C         28.17309        18.75782        -0.29049
C         26.96680        18.20440         0.39722
C         28.19155        20.21530        -0.41495
C         26.84507        20.75474        -0.83799
C         28.14086        23.01510        -1.17599
C         26.90597        22.20503        -1.32757
C         28.16110        24.40977        -1.35410
C         26.95136        25.15531        -1.61061
C         28.22987        27.25889        -1.58879
C         26.96896        26.55697        -1.67381
C         28.21814        28.73422        -1.44638
C         26.94974        29.49789        -1.63920
C         28.26886        31.57320        -2.06766
C         26.96196        30.94087        -1.97544
C         28.27128        33.14189        -1.92889
C         26.96719        33.78300        -1.84667
C         28.22146        35.90816        -1.25657
C         26.89342        35.19610        -1.34795
C         28.12614        37.28848        -0.83724
C         27.08261        38.14948        -1.53145
C         28.10123        40.20955        -0.50864
C         27.00899        39.56822        -1.00519
C         27.96462        41.63031        -0.00308
C         26.89432        42.47224        -0.69004
C         28.25069        44.55456        -0.63836
C         26.91367        43.84374        -0.63340
C         28.14446        46.04555        -0.34685
C         26.83274        46.70688        -0.07700
C         28.15860        48.78304         0.66890
C         26.88734        47.98554         0.68242
C         28.10389        50.22538         1.03853
C         26.76854        50.72573         1.50694
C         28.53756        53.16278         1.98991
C         26.65196        51.97635         2.26957
C         28.17444        54.56889         2.16434
C         26.89150        54.98327         2.46715
C         26.70349        56.32058         2.98027
C         29.39390        12.59949         1.81493
C         30.64041        14.73091         1.45172
C         29.44994        13.97257         1.54210
C         30.65566        16.12205         1.09304
C         29.46468        16.72648         0.63038
C         30.69425        18.88713         0.14910
C         29.50255        18.04620         0.00254
C         30.64440        20.25663        -0.12995
C         29.37282        20.90388        -0.43488
C         30.64408        23.14055        -0.61080
C         29.30991        22.37628        -0.57581
C         30.63981        24.45975        -1.21507
C         29.42867        25.12950        -1.36577
C         30.72226        27.26745        -1.37555
C         29.44007        26.57154        -1.50901
C         30.71250        28.73604        -1.00530
C         29.48733        29.47447        -1.47811
C         30.70212        31.60533        -1.47045
C         29.49068        30.84716        -1.65147
C         30.63726        33.02476        -1.26727
C         29.45761        33.75075        -1.32677
C         30.64107        35.90429        -0.65236
C         29.34358        35.10294        -0.63908
C         30.63487        37.33447        -0.46425
C         29.37662        38.01702        -0.23347
C         30.62173        40.25219        -0.15818
C         29.31727        39.51071         0.08555
C         30.62175        41.64486         0.09963
C         29.30919        42.35506         0.25509
C         30.64055        44.57642         0.31462
C         29.32447        43.85716         0.18361
C         30.70975        46.04425         0.06164
C         29.42380        46.78819        -0.05051
C         30.60318        48.75754         1.12544
C         29.35650        48.16672         0.47804
C         30.57469        50.27053         1.08727
C         29.41244        50.96642         1.20244
C         29.39993        52.45680         1.20991
C         31.86457        16.89859         1.04118
C         33.09810        19.01935         0.63717
C         31.89660        18.24256         0.62841
C         33.11071        20.35946         0.24675
C         31.87241        21.03074        -0.11124
C         33.12965        23.12235        -0.58192
C         31.89544        22.37931        -0.46246
C         33.15572        24.41761        -1.06544
C         31.93609        25.09567        -1.64724
C         33.20988        27.29808        -1.34049
C         31.92177        26.59636        -1.39951
C         33.20227        28.76820        -1.39005
C         31.98645        29.46273        -1.35212
C         33.17322        31.59945        -1.35510
C         31.94610        30.88917        -1.37878
C         33.16463        33.04766        -1.07135
C         31.86579        33.75834        -0.88744
C         33.06590        36.00349        -1.09108
C         31.82815        35.24068        -0.85307
C         33.07069        37.45052        -0.81277
C         31.84833        38.10118        -0.56510
C         33.07409        40.25345        -0.35144
C         31.83023        39.54361        -0.35779
C         33.07320        41.66703        -0.14815
C         31.85757        42.34816         0.08166
C         33.18242        44.57344         0.13439
C         31.92287        43.80685         0.33681
C         33.17508        45.97482         0.29821
C         31.96896        46.74233         0.46076
C         31.91032        48.08913         0.74067
C         34.31878        21.13176         0.25974
C         35.55432        23.24325        -0.06206
C         34.35530        22.46075        -0.13994
C         35.61882        24.54097        -0.53763
C         34.47072        25.09666        -1.35647
C         35.73584        27.31432        -1.49425
C         34.40212        26.61488        -1.30081
C         35.69589        28.81314        -1.31186
C         34.43677        29.49497        -1.43588
C         35.64236        31.69441        -1.38979
C         34.39123        30.91519        -1.39218
C         35.59964        33.14552        -1.10687
C         34.42297        33.81307        -1.17713
C         35.68057        36.05764        -1.39341
C         34.36352        35.28506        -1.32749
C         35.57055        37.46797        -0.85256
C         34.33090        38.14571        -0.74454
C         35.55618        40.27078        -0.40739
C         34.31407        39.55621        -0.49694
C         35.53185        41.68808        -0.27245
C         34.33139        42.39980        -0.16207
C         34.35238        43.82371        -0.06047
C         36.78571        25.33358        -0.34388
C         38.04207        27.42966        -0.45896
C         36.86893        26.67367        -0.70859
C         38.09920        28.81415        -0.69268
C         36.88488        29.49823        -1.08396
C         38.13338        31.72044        -0.76864
C         36.94253        30.96400        -1.22441
C         38.10821        33.09962        -0.66384
C         36.80394        33.84330        -0.54845
C         38.05452        36.00039        -0.57700
C         36.86816        35.30766        -0.84670
C         38.03038        37.42660        -0.57251
C         36.80460        38.15785        -0.63358
C         36.77497        39.56137        -0.44162
C         39.29098        29.57304        -0.45921
C         40.52838        31.72658        -0.21066
C         39.33459        30.97076        -0.50023
C         40.52038        33.09473        -0.17045
C         39.30592        33.85173        -0.36964
C         39.26171        35.24437        -0.29783
O         19.97073        14.85745         3.10336
O         23.01356        40.76898        -0.04095
O         28.49800        32.45199        -3.19733
O         18.80433        24.22701         1.88232
O         26.12878        22.28342        -2.57932
O         21.13707        32.92748         0.07912
O         36.49557        31.41684        -2.56296
O         31.27503        44.24877         1.58393
O         14.88198        34.88514         1.06323
O         14.02786        38.59408        -2.66713
O         23.11929        16.57310         3.08232
O         23.00812        23.28186         1.13894
O         22.34169        26.91064        -2.59931
O         19.65650        54.88404         0.82699
O         28.37671        37.37554         0.60413
O          9.19902        31.68504        -2.71124
O         21.11229        41.28170        -3.29839
O         12.66433        35.88132         1.04400
O         24.17831        29.15830        -0.15219
O         22.71984        35.55910        -3.64440
O         17.55668        18.52512         2.50136
O         25.29618        40.06233        -2.74098
O         27.33913        41.40568         1.26008
O         26.44817        47.76610         2.07414
O         13.58700        20.48123         2.19310
O         28.84768        18.05077        -1.33427
O         24.80054        24.70723        -2.84033
O         22.55928        54.97589         0.75455
O         22.35218        50.15321         2.90819
O         26.87462        18.90136         1.69053
O         33.53613        35.64662        -2.49774
O         18.78252        39.88975        -3.64293
O         17.43023        42.36972        -3.46357
O         19.24867        29.97708        -2.43154
O         10.73329        28.73103         0.58469
O         27.43347        46.76383        -1.41838
O         12.86160        24.46219         2.01469
O         25.01725        44.61261        -2.11331
O         24.99360        37.48579        -0.31501
O         16.62613        23.21295         2.51700
O         29.81109        23.07635         0.60615
O         18.59609        31.30505        -2.48295
O         16.45370        44.96572        -2.72337
O         29.04417        43.20370         1.43274
O         27.79791        52.38787         2.92722
O         32.57352        33.24206         0.29938
O         27.36579        29.17234        -0.28349
O         19.80691        35.48167        -3.45254
O         19.62138        47.75187         2.31679
O         21.49038        16.04929        -0.15477
O         30.30184        46.57353        -1.23655
O         26.25650        13.97750        -0.05705
O         27.23392        50.98006         0.10611
O         27.48046        16.01227        -0.62297
O         14.24232        43.46135        -2.97902
O         19.12763        12.46892         3.70798
H         19.53677        13.26178         4.12961
O         12.47555        29.54711        -2.55713
H         13.28387        30.05239        -2.78488
O          8.40405        40.34165        -0.75717
H          8.46407        40.31468        -1.73395
O         22.16012         7.94029         3.70044
H         21.48787         8.40408         4.24119
O         23.51352        18.65621        -0.91770
H         23.13751        17.76830        -1.10248
O         28.74190        44.43762        -2.00353
H         28.28807        45.13229        -2.53265
O         27.97547        15.27888         2.86121
H         28.15810        14.56368         3.50622
O         34.78549        24.75041        -2.75967
H         33.92903        24.79874        -3.25447
O         21.99887        46.96308         2.66322
H         21.09527        46.92558         3.05973
O         32.04947        24.92114        -3.11681
H         31.31686        25.42448        -3.53338
O         17.28076        17.09470        -0.81905
H         17.31905        16.21569        -1.25170
O         26.54289        59.04009         3.54288
H         26.43896        59.19724         2.58218
O         18.87060        26.56574        -2.05864
H         19.57673        26.24581        -2.65923
O         29.15538        39.57085         1.52587
H         28.44284        40.24833         1.74107
O         22.90102        57.60027         5.43126
H         22.77488        58.38626         6.00427
O         27.54203        38.27356        -2.89815
H         26.91182        38.87258        -3.36235
O         23.07065         8.29795         0.21167
H         23.39377         7.62098        -0.42737
O         36.07617        27.12108        -2.90717
H         35.86135        26.17669        -3.12244
O         19.54473        31.05614         1.00774
H         19.99175        31.86543         1.34632
O         26.52090        19.90722        -1.98085
H         26.01219        20.46854        -2.61670
O         18.99436        27.66821         1.40986
H         18.45488        28.29564         1.93513
O         14.29428        22.68629         3.05173
H         14.00345        23.58775         3.31446
O         25.66101        54.43747         0.58110
H         24.75615        54.30395         0.22284
O         19.07611        22.37022        -1.20048
H         19.75425        21.83344        -1.66163
O         24.43640         9.72111         4.02919
H         24.42597        10.65152         4.34028
O         20.77524        20.56312         2.69643
H         20.02337        20.04774         3.06057
O         36.53045        33.81144         0.92551
H         37.32338        34.17882         1.37423
O         26.23161        36.03599        -3.50795
H         25.43775        36.18253        -4.06336
O         30.62925        28.74060         0.46427
H         30.47873        29.66483         0.75681
O          9.84869        29.20571        -2.92080
H          9.46864        29.93967        -3.45810
O         16.45808        35.06498        -2.90287
H         17.24262        34.89307        -3.47015
O         19.70315        43.45517        -3.35991
H         19.82332        42.80153        -4.08444
O         20.40442        43.56957         1.00565
H         21.15004        43.83661         1.58635
O         12.14267        38.57308         1.26638
H         12.24769        37.67292         1.66339
O         26.40768        35.12571         0.02109
H         27.14876        34.78132         0.58031
O         24.37069        18.79537         2.64881
H         23.86912        18.06200         3.12405
O         16.58802        33.12243         1.16626
H         16.27039        33.91311         1.66565
O         29.00338        34.80385         0.76147
H         28.90574        35.68612         1.20484
O         35.99499        36.23449        -2.81767
H         35.12583        36.30392        -3.28163
O         25.65999        28.85458        -3.53034
H         24.98316        28.22653        -3.86065
O         23.35818         5.84964         0.01692
H         23.37846         4.87154        -0.05920
O         14.71500        26.29332        -1.70770
H         14.87609        27.08284        -2.26832
O         30.45971        48.38257         2.54505
H         29.66931        48.83736         2.90698
O         15.50525        40.41621        -3.65893
H         15.03593        39.59122        -3.92928
O         21.87870        52.10509        -0.19087
H         21.85541        53.05379        -0.45074
H          5.03992        31.33701        -1.19575
H          5.05988        33.79914        -1.12066
H          7.44193        27.12697        -0.57503
H          6.27210        29.22468        -0.91854
H          6.26295        35.93563        -0.97707
H          7.47336        38.08490        -0.70393
H          9.93739        22.81171        -0.04531
H          8.71005        24.89015        -0.46441
H          9.50419        39.83582         0.90125
H          9.81662        42.35443        -0.82299
H         12.53828        18.56441        -0.16785
H         11.24792        20.74977        -0.11750
H         11.02679        44.46772        -0.83971
H         12.26354        46.55626        -0.51171
H         14.84141        14.15174         0.78123
H         13.61547        16.37323         0.44299
H         13.47042        48.52584         0.20613
H         14.69083        50.50076         1.03186
H         17.35981         9.92965         1.24152
H         16.14261        12.02975         0.95645
H         15.91038        52.44913         1.93704
H         17.11106        54.38791         2.81024
H         19.72781         5.67117         1.70712
H         18.54332         7.83118         1.49099
H         18.34027        56.64346         3.20915
H         19.50677        58.74199         3.54728
H         23.09170         2.33200         2.38822
H         20.95575         3.58244         2.17467
H         22.82594        62.07197         4.13407
H         20.68123        60.82658         4.07535
H         25.24968         3.53419         2.53419
H         26.50227         5.62856         2.53955
H         25.65376        58.00174         5.07496
H         25.01137        60.86623         3.92140
H         27.79189         7.77830         2.56124
H         29.08291         9.92404         2.30378
H         28.98710        55.31140         2.24733
H         27.60580        56.90144         3.23001
H         30.33638        12.04174         1.92970
H         31.60555        14.22703         1.61447
H         31.53443        50.80978         1.11418
H         30.08751        52.97589         0.52585
H         32.80388        16.42373         1.36218
H         34.03637        18.54357         0.96003
H         34.14058        46.50447         0.32047
H         32.83977        48.64342         0.94646
H         35.24825        20.64509         0.59230
H         36.43235        22.80843         0.44065
H         36.48611        42.23544        -0.24986
H         35.32230        44.33950        -0.13132
H         37.64557        24.86792         0.16521
H         38.91774        26.92101        -0.02572
H         38.96658        37.97807        -0.39877
H         37.72068        40.10947        -0.31701
H         40.20886        29.02359        -0.19859
H         41.46320        31.17812        -0.02238
H         41.44988        33.64280         0.04364
H         40.18654        35.80061        -0.08299
