         260
 CSIRO Nanostructure Databank - Neutral Graphene Oxide Data Set
C         30.34058        31.71540         0.16085
C         30.36456        32.79322        -0.46759
C         30.54217        35.82881        -1.80471
C         30.67122        36.98654        -2.21252
C         30.60242        40.25992        -2.23243
C         30.61930        41.49878        -2.06058
C         32.57310        29.15109         1.78707
C         31.52808        29.72042         1.39346
C         32.66873        31.69486         0.67475
C         31.38526        30.96388         0.73636
C         32.74835        33.02861         0.04139
C         31.57328        33.56675        -0.76449
C         32.81304        35.83103        -1.05060
C         31.63275        34.92373        -1.38976
C         33.10340        37.06961        -1.91341
C         31.81683        37.88999        -2.30635
C         32.98638        40.14197        -1.70637
C         31.77935        39.38429        -2.26293
C         32.95305        41.64341        -1.53425
C         31.64436        42.40902        -1.76387
C         32.85969        44.42780        -1.19052
C         31.84105        43.77270        -1.54398
C         35.26738        27.80742         2.55495
C         35.12624        29.12884         2.13791
C         33.82914        29.90230         2.17745
C         35.10953        31.79652         1.14499
C         33.80950        31.11246         1.22080
C         35.15728        33.20206         0.64817
C         33.89981        33.77945         0.10633
C         35.27458        35.89004        -0.38563
C         33.96421        35.20148        -0.33145
C         35.29922        37.31713        -0.70870
C         34.20711        37.93132        -1.29904
C         35.54006        40.14485        -1.32670
C         34.28860        39.36876        -1.68048
C         35.55421        41.67058        -1.34515
C         34.26063        42.42618        -1.58674
C         35.51069        44.69653        -1.16841
C         34.23779        43.97192        -1.44226
C         35.68300        46.05961        -0.62693
C         37.51662        27.45488         2.07075
C         36.26426        27.03245         2.55313
C         37.61612        28.85196         1.74903
C         36.39504        29.64275         1.75656
C         37.60706        31.64505         0.60549
C         36.34356        30.95676         1.04041
C         37.62205        33.07209         0.16041
C         36.44700        33.77066         0.16443
C         37.70596        35.88333        -0.01402
C         36.43705        35.19321        -0.13099
C         37.55299        37.32329         0.43900
C         36.49765        38.07635        -0.35578
C         37.78120        40.22607        -0.18697
C         36.58318        39.42774        -0.56877
C         37.66284        41.70389        -0.02178
C         36.67911        42.39884        -0.66914
C         38.00194        44.61708        -0.31058
C         36.78648        43.89483        -0.84660
C         38.09597        46.16146        -0.20460
C         36.74469        46.66771        -0.45953
C         41.43848        25.46556         3.63311
C         40.23736        25.81415         3.48797
C         40.43471        27.85203         2.26732
C         39.65456        26.75260         2.59036
C         40.17504        28.96884         1.39468
C         38.88149        29.51526         1.34769
C         40.26861        31.64041        -0.28165
C         38.73420        31.01921         1.36170
C         40.18103        33.02382        -0.22373
C         38.85357        33.73247        -0.50114
C         40.17027        35.94488        -0.35469
C         38.88623        35.19426        -0.09527
C         40.18267        37.28736         0.36600
C         38.89775        38.01516         0.53508
C         40.07437        40.16068         1.09710
C         38.98073        39.49657         0.30864
C         39.84034        41.61697         1.42557
C         38.70057        42.39735         0.80819
C         40.15772        44.57149         1.10192
C         38.91095        43.88113         0.63250
C         40.20177        45.94609         1.27936
C         39.23408        46.81760         0.51660
C         40.42139        48.89893         1.06199
C         39.37217        48.24622         0.86019
C         43.70959        25.06128         2.44218
C         42.67827        25.79970         3.07832
C         43.08385        27.41721         1.16595
C         42.57280        27.10453         2.41201
C         42.74215        28.71670         0.46398
C         41.40528        29.48453         0.60239
C         42.63988        31.56830        -0.47865
C         41.49227        31.00337         0.35372
C         42.64819        33.05458        -0.46902
C         41.46521        33.73845        -0.25156
C         42.66292        35.89508        -0.30128
C         41.48569        35.20007        -0.23460
C         42.72314        37.33118         0.19623
C         41.38789        38.15564         0.04267
C         42.79200        40.05428         1.16200
C         41.41988        39.42991         0.96273
C         42.96911        41.39729         1.76339
C         40.98110        42.42377         1.89057
C         42.56073        44.38994         1.88944
C         41.22044        43.73724         1.64007
C         42.32686        45.71081         2.51553
C         41.21680        46.45445         2.21960
C         42.88109        48.66865         1.83124
C         41.51399        48.67196         1.94110
C         44.37863        25.36306         1.43415
C         45.28520        27.22950        -0.13742
C         44.13618        26.53237         0.57557
C         45.15634        28.72075        -0.32891
C         43.96538        29.41848        -0.06465
C         45.18228        31.62972        -0.65540
C         43.92838        30.81932        -0.56051
C         45.17227        32.98169        -0.77155
C         43.88328        33.77714        -0.98526
C         45.13134        35.98317        -1.03294
C         44.00830        35.17489        -0.34173
C         45.08672        37.51715        -0.95472
C         43.86213        38.19099        -0.35467
C         45.15000        40.40936         0.21756
C         43.89749        39.58072         0.23106
C         45.22767        41.72418         0.91095
C         44.01476        42.24320         1.61047
C         45.25795        44.40503         2.19443
C         43.94101        43.72770         1.84919
C         45.38684        45.79582         2.23568
C         44.29594        46.70222         2.49596
C         43.90624        47.94645         2.06468
C         47.78258        27.33580         0.18716
C         46.66736        26.80334         0.00138
C         48.29258        28.51387        -0.46032
C         46.28313        29.44491        -0.78515
C         47.72974        31.52401        -1.07783
C         46.49120        30.88774        -0.41521
C         47.59614        33.00128        -1.50480
C         46.50181        33.73201        -0.67006
C         47.54088        35.68851        -1.70132
C         46.41043        35.18256        -1.14104
C         47.61039        37.87292        -1.42259
C         46.30812        38.42931        -1.00927
C         47.69013        40.10930         0.38875
C         46.39337        39.73826        -0.29051
C         47.77495        41.32787         1.28820
C         46.51715        42.16437         1.54778
C         47.89476        44.10392         2.51214
C         46.49318        43.51130         2.24269
C         47.78916        45.56811         2.46261
C         46.77329        46.20871         2.16195
C         50.45392        29.34981         0.47534
C         49.16982        29.51296        -0.14025
C         50.27517        31.80260        -0.74537
C         49.07507        30.86492        -0.84819
C         50.21087        32.94099        -1.76621
C         48.94350        33.75508        -1.50956
C         50.09466        36.03372        -1.26688
C         48.88808        35.11356        -1.58731
C         50.02723        37.55643        -1.72205
C         48.84287        38.29683        -1.06239
C         50.23244        40.25071        -0.02038
C         48.96437        39.42566        -0.09391
C         50.17199        41.64009         0.47035
C         49.20698        41.87468         1.66163
C         50.39223        43.99955         1.83162
C         49.14708        43.34134         2.21797
C         51.52026        29.99284         0.37234
C         52.75304        31.98959        -0.83814
C         51.85430        30.82764        -0.81550
C         52.66461        33.05374        -1.47242
C         51.47875        33.84868        -1.80588
C         52.52297        36.25090        -1.46819
C         51.40364        35.32814        -1.73351
C         52.47878        37.47889        -1.59504
C         51.34994        38.39792        -1.48429
C         52.57453        40.52614        -0.40489
C         51.41006        39.73773        -0.83591
C         52.56935        41.66653         0.07489
C         51.36968        42.59215         0.08430
C         51.32070        43.69916         1.08774
O         40.01331        36.22007        -1.75194
O         51.43767        34.66639        -3.01051
O         47.54690        39.99049         1.83793
O         42.16711        39.18128         2.16465
O         41.06605        47.69519         2.91772
O         43.32176        46.17229         3.41093
O         32.93663        36.04625         0.36652
O         35.29599        39.63069        -2.68679
O         38.49457        26.49411         1.87327
O         48.40822        30.78370        -2.13014
O         48.64935        43.47929         3.55614
O         31.91182        33.76632        -2.17635
O         43.01138        30.95457        -1.73369
O         39.54616        40.54496         2.39064
O         44.75724        36.78608        -2.17304
O         45.06705        41.70147        -0.52258
O         37.95317        44.19769        -1.69489
O         41.66137        28.64826        -0.54995
O         39.23806        46.62196        -0.93644
O         41.65914        28.00298         2.98200
O         44.30308        26.43627        -0.83861
O         46.27986        42.29506         2.99387
O         47.48672        36.89479        -2.39962
O         39.64704        37.48383         1.69804
O         43.42813        39.33417        -1.12581
O         35.19529        32.92225         2.09771
O         38.92521        39.88426        -1.08994
O         32.03777        38.67058        -3.49752
O         32.79220        40.74099        -0.38041
O         34.99091        44.60335        -2.50091
O         51.27020        39.61324        -2.27313
O         35.15284        42.11323        -2.67559
O         39.25051        31.63801         2.29764
O         46.28026        39.71995        -1.74459
O         36.88120        30.77652        -0.32086
O         38.12353        43.35152         1.76583
O         47.28279        28.81201        -1.46739
O         49.89725        39.19695         0.99484
O         43.36774        44.40275         0.65057
O         41.92786        41.73395         2.63956
O         46.73575        30.92946         1.02388
H         46.81635        31.89314         1.25868
O         44.46638        34.94527         1.02556
H         44.09533        35.68081         1.58338
O         38.62333        33.71871        -1.93825
H         39.09752        34.52140        -2.28832
O         50.27968        32.42377         0.53014
H         50.38487        31.73663         1.22495
O         50.13736        36.08484         0.16910
H         50.18549        35.17597         0.53530
O         46.89162        33.68411         0.73068
H         46.16443        34.15087         1.22069
O         33.62397        36.55213        -3.14685
H         33.67013        37.28540        -3.79994
O         49.85786        37.52374        -3.13021
H         50.01025        38.42508        -3.48845
O         41.19837        38.52954        -1.31457
H         40.79783        37.74334        -1.79804
O         51.93603        30.05238        -1.94006
H         52.34130        30.55155        -2.67708
O         43.73353        33.96062        -2.40476
H         43.55157        33.08680        -2.81227
O         33.69685        30.39537         3.50441
H         32.88647        30.94210         3.57083
O         41.77892        31.58821         1.64415
H         40.95469        31.62847         2.19153
O         37.01140        37.27066         1.78772
H         37.75790        37.05251         2.39061
O         43.06130        37.09955         1.60423
H         42.23479        36.92893         2.10766
O         47.10882        32.97481        -2.85504
H         47.72303        32.40395        -3.37066
O         39.47424        30.85891        -1.04561
H         38.88513        31.41801        -1.60036
O         49.71017        41.13075         2.76602
H         49.61978        40.16931         2.55528
O         50.09624        32.38961        -3.08457
H         50.29666        33.11432        -3.72016
O         51.16017        43.06941        -1.21629
H         51.93557        43.59318        -1.50409
