         404
 CSIRO Nanostructure Databank - Neutral Graphene Oxide Data Set
C          1.19996         3.56610         0.84027
C          0.03452         4.22477         1.18593
C          1.16588         6.39214         1.10602
C          0.01071         5.62689         1.30150
C          1.12668         7.85152         1.08579
C         -0.00401         8.59828         1.36082
C          1.14393        10.77765         1.23122
C          0.00233        10.02031         1.42816
C          1.20390        12.22158         1.40232
C          0.03986        12.97833         1.66505
C          1.27395        15.07815         1.50230
C          0.07315        14.36249         1.71275
C          1.29886        16.52821         1.44719
C          0.13203        17.30882         1.65002
C          1.32993        19.36897         1.10989
C          0.14995        18.68068         1.49959
C          1.32556        20.78698         0.82413
C          0.14158        21.56080         0.94564
C          1.23744        23.48636        -0.07371
C          0.09394        22.85972         0.49349
C          1.14488        24.80942        -0.64555
C         -0.11896        25.34977        -0.97748
C          0.95398        27.38004        -1.73301
C         -0.20595        26.59018        -1.57278
C          0.79203        28.80288        -2.05092
C          0.38373        29.47901        -3.15241
C          1.27831        31.80027        -2.53407
C          0.45732        30.91991        -3.21604
C          1.27403        34.21485        -2.21982
C          0.11582        35.05928        -2.23523
C          1.29455        36.74256        -0.96790
C          0.10646        36.25645        -1.54640
C          1.28753        37.94731        -0.23485
C          3.59354         3.65057         0.22415
C          2.40339         4.29896         0.65178
C          3.64658         6.41054         0.73726
C          2.40065         5.71414         0.82743
C          3.65152         7.87126         0.79858
C          2.35250         8.56359         0.68609
C          3.65884        10.78075         0.90169
C          2.36392        10.09221         0.77360
C          3.67424        12.18577         1.05623
C          2.43989        12.91370         1.24839
C          3.72346        15.03160         1.12672
C          2.47409        14.33719         1.29688
C          3.73130        16.45133         1.03023
C          2.51094        17.20053         1.14236
C          3.72901        19.27501         0.51408
C          2.52432        18.61822         0.94959
C          3.68856        20.64449         0.15987
C          2.50283        21.41736         0.32897
C          3.64468        23.46886        -0.59361
C          2.47014        22.79333        -0.09382
C          3.58427        24.82549        -0.94915
C          2.33266        25.53329        -0.96558
C          3.48309        27.72204        -1.59713
C          2.23152        26.89614        -1.39849
C          3.56482        29.21546        -1.42446
C          2.49024        30.05794        -1.36305
C          3.62681        32.21059        -1.57726
C          2.46568        31.46473        -1.74266
C          3.68799        33.71108        -1.58608
C          2.44700        34.54999        -1.56556
C          3.72876        36.44401        -0.37721
C          2.59735        36.04642        -1.29169
C          3.66877        37.72100         0.29358
C          2.43422        38.44616         0.35009
C          5.94658         3.56799        -0.60944
C          4.79531         4.33069         0.07299
C          6.11203         6.52251         0.39263
C          4.83314         5.71504         0.43909
C          6.06968         7.84307         1.20341
C          4.81840         8.60129         0.87094
C          6.11740        10.72538         0.77639
C          4.86265        10.04437         0.84072
C          6.11798        12.13261         0.78318
C          4.91824        12.87109         0.97934
C          6.18525        15.01786         0.95968
C          4.94389        14.31005         1.01160
C          6.18002        16.42798         0.91214
C          4.96257        17.13753         0.84590
C          6.17527        19.15176         0.11017
C          4.96048        18.53942         0.50023
C          6.13482        20.44811        -0.57372
C          4.82570        21.25075        -0.53907
C          6.05254        23.30260        -1.18825
C          4.88273        22.71990        -0.74575
C          6.05371        24.70899        -1.67403
C          4.76565        25.47952        -1.56273
C          6.07831        27.67048        -1.28820
C          4.79482        26.98914        -1.66509
C          6.09063        29.11034        -1.10474
C          4.88530        29.88132        -1.54411
C          6.07490        32.01975        -0.78298
C          4.88962        31.40703        -1.46074
C          6.06675        33.48731        -0.54836
C          4.93597        34.35672        -1.02454
C          6.08919        36.23326         0.25089
C          4.90039        35.70461        -0.37299
C          6.04846        37.55110         0.83231
C          4.81474        38.24744         0.88649
C          8.55794         3.63570        -0.44057
C          7.29580         3.81469         0.02395
C          8.54385         6.37357         0.87152
C          7.31691         5.79895         0.90308
C          8.63067         7.83626         1.28082
C          7.35869         8.60003         0.99472
C          8.64947        10.64705         0.67869
C          7.37737         9.96381         0.77371
C          8.68486        12.08528         0.41597
C          7.36192        12.87772         0.51359
C          8.67609        14.97419         0.79834
C          7.42819        14.30384         0.81315
C          8.70887        16.40800         0.76891
C          7.46019        17.20364         1.03270
C          8.63126        19.16475        -0.05771
C          7.42634        18.52051         0.29350
C          8.60585        20.51823        -0.57617
C          7.39046        21.16088        -0.80883
C          8.63014        23.30808        -1.48799
C          7.29260        22.51609        -1.36134
C          8.59331        24.76346        -1.37077
C          7.35896        25.51906        -1.83970
C          8.44580        27.51366        -0.63731
C          7.23714        26.91227        -1.20617
C          8.44704        29.02957        -0.35733
C          7.25695        29.79669        -0.75478
C          8.52576        31.87389        -0.29894
C          7.34408        31.23952        -0.67749
C          8.61400        33.35658        -0.21178
C          7.37517        34.18737        -0.35515
C          8.50538        36.12094         0.74492
C          7.32008        35.54006         0.23743
C          8.47097        37.48091         1.23079
C          7.23189        38.15243         1.29469
C         10.95975         3.56185        -0.01492
C          9.75820         4.19558         0.20940
C         11.08956         6.30248         0.87238
C          9.75946         5.52827         0.88614
C         11.09814         7.79902         0.79701
C          9.90311         8.52950         0.88711
C         11.13117        10.66850         0.66789
C          9.88153         9.95248         0.76126
C         11.16877        12.09265         0.70407
C          9.93409        12.83010         0.64470
C         11.17922        14.92641         0.98310
C          9.90676        14.21920         0.75866
C         11.18104        16.45770         0.82764
C          9.89407        17.11995         0.56042
C         11.12000        19.15917        -0.11393
C          9.88850        18.49259         0.14748
C         11.09308        20.52694        -0.53716
C          9.85622        21.21712        -0.77156
C         11.07183        23.32290        -1.12879
C          9.85698        22.58806        -1.10278
C         11.06474        24.75386        -1.14054
C          9.78194        25.45193        -1.05525
C         10.94547        27.53082        -0.32720
C          9.74316        26.83183        -0.74466
C         10.94180        28.99427        -0.12748
C          9.74201        29.72467        -0.20980
C         10.93296        31.78854         0.38971
C          9.74533        31.13458        -0.06234
C         10.90223        33.20417         0.70787
C          9.78144        33.97719         0.45544
C         10.90549        36.04369         1.25434
C          9.73251        35.38302         0.81279
C         10.89928        37.44678         1.58472
C          9.66605        38.12801         1.61496
C         13.44179         3.46425        -0.18082
C         12.24262         4.19974         0.15403
C         13.54789         6.29635         0.37011
C         12.27848         5.56887         0.42862
C         13.54318         7.77784         0.27448
C         12.32262         8.49585         0.56389
C         13.58723        10.63701         0.53895
C         12.34395         9.92814         0.57402
C         13.63159        12.02927         0.64926
C         12.42190        12.78349         0.72961
C         13.64538        14.96416         0.73085
C         12.45368        14.21664         0.79374
C         13.64021        16.38547         0.58602
C         12.44227        17.12087         0.48700
C         13.59322        19.19003        -0.21763
C         12.39180        18.49480         0.06340
C         13.56718        20.53403        -0.66597
C         12.31291        21.21471        -0.76697
C         13.51655        23.30032        -1.27431
C         12.30020        22.60643        -1.05431
C         13.47106        24.69497        -1.51907
C         12.27889        25.46065        -1.27676
C         13.44404        27.81497        -0.87058
C         12.32846        26.86832        -0.77133
C         13.43668        29.02714        -0.10697
C         12.15983        29.66288         0.17917
C         13.34735        31.62868         1.12325
C         12.12074        31.03088         0.56038
C         13.36843        33.08417         1.46089
C         12.08664        33.85368         1.31053
C         13.33926        35.98299         1.58784
C         12.14259        35.33247         1.33613
C         13.34941        37.39843         1.86578
C         12.11944        38.09148         1.90231
C         15.90374         3.41538        -0.63702
C         14.68205         4.07430        -0.29535
C         15.90691         6.25783        -0.61320
C         14.77235         5.52065         0.00606
C         15.90351         7.75755        -0.55372
C         14.71793         8.44748         0.00635
C         16.12616        10.59355         0.10857
C         14.83558         9.86989         0.36657
C         16.13938        12.07196         0.18009
C         14.93825        12.73290         0.72928
C         16.20277        14.95141         0.40471
C         14.94881        14.25789         0.78096
C         16.20731        16.38811         0.34598
C         14.93335        17.10471         0.53609
C         16.12638        19.15086        -0.46685
C         14.89939        18.57866         0.10186
C         16.03127        20.47188        -1.09044
C         14.77595        21.22530        -0.98758
C         16.01517        23.34563        -1.35381
C         14.77381        22.60350        -1.26811
C         15.95236        24.76384        -1.56139
C         14.71378        25.30081        -1.85958
C         15.89900        27.97431        -1.11893
C         14.65775        27.48650        -1.50809
C         15.90774        29.18914        -0.37052
C         14.65722        29.71583         0.07197
C         15.92826        31.75139         0.87363
C         14.68641        30.95748         0.84727
C         15.87383        33.13858         1.22936
C         14.64915        33.80118         1.43107
C         15.86291        35.92937         1.92424
C         14.64868        35.29652         1.29950
C         15.82064        37.34722         2.21957
C         14.57654        38.04611         2.14017
C         18.37274         3.41011        -0.96174
C         17.12763         4.10012        -0.74900
C         18.36580         6.25730        -0.87197
C         17.17838         5.53784        -0.72501
C         18.37847         7.71638        -0.82202
C         17.20366         8.43533        -0.63847
C         18.51142        10.58973        -0.65130
C         17.16751         9.93154        -0.77571
C         18.49831        12.06745        -0.61721
C         17.29269        12.77592        -0.09143
C         18.66490        14.87277         0.19106
C         17.35410        14.20356         0.13164
C         18.67274        16.43999         0.20896
C         17.37764        17.11791         0.08809
C         18.60749        19.20805        -0.59788
C         17.35187        18.49786        -0.34351
C         18.60294        20.59708        -0.89542
C         17.34702        21.26328        -1.26283
C         18.49488        23.49341        -1.22825
C         17.27185        22.72557        -1.25767
C         18.46118        24.92018        -1.27021
C         17.14322        25.60226        -1.22897
C         18.40660        27.83909        -0.99686
C         17.12145        27.11713        -1.06285
C         18.35676        29.35649        -0.89232
C         17.12892        29.87997        -0.17762
C         18.37241        31.91911         0.53422
C         17.13757        31.17523         0.41779
C         18.35676        33.23962         1.08027
C         17.10649        33.87569         1.35407
C         18.31469        35.83068         2.32506
C         17.06081        35.21957         1.86118
C         18.27460        37.37101         2.66674
C         17.00177        38.05011         2.47730
C         19.54752         4.09877        -1.10534
C         20.78850         6.25155        -1.19446
C         19.59443         5.53561        -1.05832
C         20.80854         7.65690        -1.11881
C         19.65076         8.40904        -0.91816
C         20.95053        10.57333        -0.66530
C         19.68326         9.86976        -0.78269
C         21.03098        11.92190        -0.55348
C         19.83895        12.77977        -0.64162
C         21.05973        14.94408        -0.33912
C         19.90283        14.20819        -0.22869
C         21.06931        16.36956        -0.31018
C         19.91204        17.11622        -0.19315
C         21.04548        19.31195        -0.52435
C         19.86033        18.55022        -0.44102
C         21.01750        20.68360        -0.72273
C         19.79548        21.36300        -0.92225
C         20.92031        23.59078        -1.14926
C         19.74375        22.81237        -1.12630
C         20.87669        24.97661        -1.17287
C         19.64830        25.67979        -1.18216
C         20.82815        27.89503        -0.89822
C         19.61087        27.14840        -1.05107
C         20.82137        29.23055        -0.52029
C         19.63068        29.96372        -0.36250
C         20.81106        32.01689         0.40684
C         19.60919        31.29304         0.17869
C         20.79909        33.29149         0.94312
C         19.59342        33.93888         1.29726
C         20.75200        36.01752         2.06460
C         19.59900        35.26067         1.89545
C         20.71385        37.40828         2.37736
C         19.54073        38.08993         2.55460
O         18.27146        36.31797         3.68721
O         11.18436        15.81177         2.14691
O          5.17314        30.71020        -2.72294
O          1.24249        29.58201        -0.96155
O         15.02382        18.18930         1.51170
O          7.95980        12.51204        -0.78545
O         15.89211        10.01622         1.42386
O         15.13169        13.44424         1.99234
O          4.14667        27.43079        -2.89810
O         11.81214        26.83602         0.60292
O         12.49643        33.33342         2.63686
O          8.20954        28.06239         0.71572
O         16.67545        20.60955        -2.39806
O          5.22466        20.49023        -1.72921
O          4.73150        34.31308        -2.47488
O          5.17106        24.85412        -2.83695
O         16.95869        26.21075         0.12292
O          2.21102         9.39134        -0.51543
O         14.64517        26.52624        -2.51763
O         13.99719        30.82407         2.14900
O         10.53760         5.69755         2.11557
O         15.54357         7.02032        -1.81148
O         14.53182         5.84703         1.41081
O         19.03938        12.63545        -1.87175
O          5.68874        32.58972         0.54315
O          8.28207        34.04022        -1.49309
O          7.18936         4.45314         1.27464
O         18.81649        15.64799         1.41968
O          7.94467        22.73544        -2.64521
O          1.09308        33.09063        -3.00193
O          5.97967         7.48412         2.61001
H          6.89848         7.48748         2.98226
O          8.71042         7.73453         2.76565
H          9.42984         7.07663         2.95098
O          6.38981         6.83448        -1.00252
H          5.63566         7.36018        -1.34619
O         16.68532        10.20744        -2.13598
H         17.34847         9.86009        -2.76958
O         18.22412        29.84638        -2.29362
H         19.06929        29.64565        -2.75010
O         14.82616        35.53472        -0.17460
H         14.86977        36.50796        -0.29898
O          5.68175         2.15989        -0.63319
H          5.78811         1.81174         0.27600
O          7.54174        17.56755         2.47041
H          8.46948        17.82955         2.65599
O          7.55750        25.75163        -3.25649
H          6.68480        25.59897        -3.69494
O          3.01290        36.59578        -2.60625
H          3.76301        36.02843        -2.91198
H          1.20860         2.47436         0.71198
H         -0.89345         3.65717         1.34212
H         -0.94555         6.11883         1.52576
H         -0.94600         8.09127         1.61312
H         -0.93683        10.50978         1.72156
H         -0.92342        12.46985         1.80548
H         -0.86624        14.90131         1.89401
H         -0.81430        16.82479         1.92549
H         -0.78399        19.23498         1.66025
H         -0.76556        21.12021         1.37894
H         -0.84528        23.41979         0.59064
H         -1.03418        24.76943        -0.80540
H         -1.18084        27.00544        -1.86147
H         -0.03735        28.94270        -4.01299
H         -0.18496        31.39346        -3.97405
H         -0.78427        34.69332        -2.74583
H         -0.82321        36.83524        -1.44497
H          0.33754        38.49266        -0.13002
H          3.55252         2.57891        -0.02247
H          2.40906        39.39948         0.89663
H          5.98099         3.90056        -1.68212
H          4.77603        39.23744         1.36411
H          8.71643         3.06092        -1.36562
H          7.19469        39.17791         1.69061
H         10.95218         2.56721        -0.48647
H          9.63158        39.18051         1.93231
H         13.34634         2.38544        -0.37669
H         12.10940        39.16023         2.16239
H         15.89349         2.32329        -0.77454
H         14.56983        39.12517         2.35409
H         18.36843         2.31096        -0.99999
H         16.98300        39.15036         2.48950
H         20.48939         3.55193        -1.26021
H         21.73225         5.70876        -1.34783
H         21.77979         8.15979        -1.22049
H         21.87614         9.98622        -0.59278
H         22.00418        12.39028        -0.34742
H         22.00009        14.43999        -0.60443
H         22.02088        16.86466        -0.54760
H         22.01832        18.82159        -0.38645
H         21.96914        21.23044        -0.73702
H         21.90430        23.10519        -1.11184
H         21.82896        25.52143        -1.14769
H         21.79809        27.39012        -0.98553
H         21.78734        29.69763        -0.28173
H         21.77911        31.57162         0.14167
H         21.75941        33.80109         1.09812
H         21.73288        35.58823         1.81888
H         21.66240        37.96387         2.35470
H         19.53170        39.18912         2.59060
