         278
 CSIRO Nanostructure Databank - Neutral Graphene Oxide Data Set
C        -11.05496         0.71919        -1.17914
C         -9.74315         1.46211        -1.21434
C         -8.65011         0.72865        -0.49118
C         -7.48791         1.42118        -0.13766
C         -6.17171         0.73328        -0.06685
C         -5.00082         1.44745         0.53369
C         -3.76600         0.65409         0.84084
C         -2.49873         1.41850         0.73122
C         -1.27608         0.65837         0.25647
C          0.03576         1.37946         0.50474
C          1.22470         0.71432         0.48448
C          2.45237         1.42943        -0.01879
C          3.75828         0.65670         0.16534
C          4.97001         1.38946        -0.41420
C          6.31016         0.77016        -0.08166
C          7.51648         1.41657        -0.69938
C          8.81235         0.74856        -0.57227
C          9.97468         1.44407        -0.83986
C         11.22324         0.67662        -0.90269
C         -9.78106         2.92465        -0.84589
C         -8.65325         3.58406        -0.38778
C         -7.46037         2.83400        -0.05925
C         -6.41931         3.59254         0.75533
C         -5.06930         2.83892         1.18114
C         -3.72158         3.57669         0.91588
C         -2.59007         2.89326         0.53888
C         -1.31720         3.57998         0.17032
C         -0.00964         2.84579         0.23072
C          1.20640         3.69516         0.56154
C          2.51490         2.87827         0.46580
C          3.80114         3.60537         0.29501
C          5.06875         2.85752         0.00765
C          6.32487         3.63105        -0.23311
C          7.51653         2.93140        -0.82498
C          8.80938         3.63647        -0.84832
C          9.95847         2.89412        -0.96011
C         -8.61349         5.04684        -0.34657
C         -7.45079         5.74605        -0.14389
C         -6.21954         4.93171         0.03612
C         -4.60876         5.79485         1.96902
C         -3.48730         4.98152         1.41012
C         -2.28223         5.76038         0.96482
C         -1.37049         5.09457        -0.05511
C         -0.02973         5.82700        -0.04962
C          1.22274         4.99914        -0.30172
C          2.51874         5.80442        -0.07412
C          3.81882         5.08627         0.08515
C          5.12524         5.76784         0.49346
C          6.26043         5.14714        -0.38175
C          7.62307         5.81349        -0.07996
C          8.77790         5.16279        -0.90474
C         -7.28778         7.17994        -0.43876
C         -6.43018         8.05938         0.16954
C         -4.72158         7.14193         1.52764
C         -3.60929         7.88368         1.17903
C         -2.21696         7.31340         1.11254
C         -1.34064         7.94513        -0.03187
C         -0.02135         7.18626         0.01274
C          1.17220         8.01531         0.47664
C          2.48021         7.20256         0.47744
C          3.80643         7.94501         0.53588
C          5.05743         7.25219         0.21328
C          6.23934         7.95446        -0.12419
C          7.46700         7.30352        -0.29623
C         -6.13789         9.32987        -0.52461
C         -5.00038        10.06151        -0.71467
C         -3.68971         9.83938        -0.11120
C         -2.46259        10.08986        -0.62497
C         -1.20616         9.52534         0.03591
C          0.07846         9.94707        -0.64780
C          1.28231         9.31815        -0.31511
C          2.53881         9.92794        -0.43114
C          3.69562         9.46537         0.44984
C          5.00354        10.09766         0.04108
C          6.13227         9.41538        -0.23342
C        -11.15360        -0.60116        -0.97688
C        -10.03751        -1.51329        -0.51540
C         -8.72691        -0.73196        -0.30960
C         -7.42825        -1.47881        -0.35154
C         -6.09077        -0.75165        -0.47688
C         -5.05753        -1.55610         0.34614
C         -3.81465        -0.84949         0.77498
C         -2.50265        -1.58757         0.79068
C         -1.23640        -0.80284         0.66083
C          0.01536        -1.50025         0.20842
C          1.29757        -0.76210         0.30860
C          2.57238        -1.49251         0.58445
C          3.79730        -0.67490         0.50144
C          5.10491        -1.37173         0.72648
C          6.37386        -0.63605         0.39031
C          7.64712        -1.41714         0.23183
C          8.87060        -0.69672        -0.22297
C          9.97039        -1.50307        -0.89572
C         11.24119        -0.67498        -0.93446
C         -9.83317        -2.74793        -1.46238
C         -8.69931        -3.64447        -0.98565
C         -7.41736        -2.90236        -0.82775
C         -6.15730        -3.65975        -0.66202
C         -5.06151        -3.10514         0.23460
C         -3.72147        -3.68280        -0.20114
C         -2.48107        -2.94603         0.13836
C         -1.21616        -3.74590         0.15037
C          0.06355        -2.99430         0.26304
C          1.25452        -3.64481         0.94102
C          2.56680        -2.85110         0.78012
C          3.80335        -3.56756         1.33007
C          5.14690        -2.84593         1.00978
C          6.45478        -3.63629         0.74466
C          7.48193        -2.87656        -0.15911
C          8.79575        -3.64513        -0.18130
C         10.13247        -2.89630        -0.23176
C         -8.73308        -4.98795        -0.81761
C         -7.55286        -5.79244        -0.25218
C         -6.21815        -5.15122        -0.65654
C         -4.94628        -5.89874        -0.48546
C         -3.57595        -5.21065        -0.44494
C         -2.48257        -5.87673         0.43495
C         -1.28437        -5.19730         0.47652
C          0.01092        -5.88074         0.50081
C          1.33604        -5.10099         0.41845
C          2.53695        -5.84965         0.96564
C          3.82215        -5.10256         1.10501
C          4.98656        -5.75705         0.40390
C          6.21910        -4.98671         0.08134
C          7.44818        -5.73684        -0.47243
C          8.74473        -4.99157        -0.22347
C         -7.47373        -7.26631        -0.63692
C         -6.31833        -7.96557        -0.46717
C         -5.10921        -7.27466         0.17685
C         -3.77670        -8.06591         0.10160
C         -2.48839        -7.38243         0.49403
C         -1.17689        -8.09521         0.22308
C          0.03046        -7.20724         0.18270
C          1.29701        -7.97474         0.23651
C          2.56625        -7.29948         0.59303
C          3.83520        -7.95984         0.25901
C          5.00069        -7.23892         0.22904
C          6.28042        -7.91357         0.06041
C          7.44698        -7.20355        -0.08646
C         -6.17793        -9.38334        -0.79689
C         -4.97327        -9.96235        -0.99383
C         -3.71341        -9.12454        -1.00469
C         -2.42101        -9.91456        -0.98745
C         -1.24836        -9.32580        -0.65887
C         -0.09959        -9.94497         0.10661
C          1.27294        -9.36024        -0.37328
C          2.58355       -10.07618        -0.09135
C          3.77951        -9.40712         0.07445
C          5.07445       -10.07253         0.07665
C          6.24082        -9.37047         0.08302
O         -5.55992        -5.78610        -1.80319
O          6.51586         0.49017         1.32117
O          0.67033        -1.03771        -1.01571
O          1.80945        -8.05746         1.61134
O         -8.04272        -1.20921         0.93283
O         -5.98521         7.78312         1.49728
O         -1.66775        -1.30215         1.95344
O         -1.98324         7.78435        -1.30390
H         -1.95713         6.83810        -1.59816
O         -6.46474        -3.07471        -1.94432
O         -0.36143        -3.51651        -1.03158
O          3.17411        -5.71284         2.26598
O         -0.62941        -9.14993         1.25638
O          6.92444        -2.84583        -1.49435
H          7.67251        -2.73002        -2.12594
O         -4.87348        -1.21405         1.74639
O         -5.20990         1.51881        -0.90483
O          3.32997         3.15267         1.62490
O         -0.67790         3.03936        -1.05875
O          3.60564        -3.39976         2.76091
H          4.32317        -3.87166         3.23442
O          7.05334        -3.88566         2.02374
H          6.99183        -3.04971         2.54130
O         -3.25195        -8.22496         1.42747
O         -3.07297        -2.86354        -1.20455
O          7.33506        -5.75818        -1.92654
H          6.38250        -5.59211        -2.13079
O         -5.14111         5.26836        -0.44599
O          7.28294         2.07560        -1.98394
O          6.02583         3.11190         1.08901
O         -5.41859        -7.01090         1.51525
O          3.40394         5.59407        -1.22563
O         -7.68597        -5.68824         1.17965
H         -6.90062        -6.18035         1.57267
O          5.12998        -4.99878        -0.88349
O          8.67170        -1.05492         1.20086
O          3.28828         9.97868         1.73865
H          2.50957         9.42091         2.02822
O         -9.35623         1.46556        -2.64775
H         -8.44885         1.83432        -2.70735
O          1.16230         4.62311        -1.68901
H          2.05205         4.80620        -2.08153
O         -3.81517         9.22192         1.15927
O         -2.28107         5.08153         2.25141
O          5.33185        -1.88556         2.09132
O          1.69976        -5.06210        -0.98812
H          0.95444        -4.62345        -1.47364
O         -3.05182         1.07083         2.05466
O          3.18680         7.33317         1.72623
O          0.86170         8.39364         1.80805
O         -9.49202        -2.23366        -2.75177
H         -8.96961        -2.90306        -3.23886
O         -1.44972         0.55748        -1.18347
H         -1.19939         1.42925        -1.58171
O         -2.00456         5.18620        -1.35996
H         -1.43497         4.66540        -1.97293
O         -1.63534         7.60356         2.38241
H         -0.64173         7.78278         2.27432
O         -7.14271         3.90722         1.97239
H         -7.55474         3.08237         2.30714
O         -5.35837        -3.66411         1.52573
H         -5.18327        -2.97839         2.21248
O          1.01533         4.08892         1.92688
H          1.89769         4.08258         2.37330
O         -3.00460        -5.37996        -1.75382
H         -3.74910        -5.40247        -2.39949
O          2.20395         1.53842        -1.46370
H          1.72999         0.72401        -1.75389
O          8.60427         5.55016        -2.27978
H          9.18661         4.99575        -2.83935
O        -10.46938        -2.03411         0.75555
H         -9.66855        -2.13624         1.32142
O          7.95245         5.57822         1.31924
H          8.51322         6.31506         1.63952
O         -5.13854         2.68227         2.62115
H         -4.36620         2.11033         2.87730
O         -3.74280        -8.31823        -2.22422
H         -3.75786        -8.92813        -2.99065
O          9.54894        -1.77143        -2.26517
H          9.60846        -0.93603        -2.77548
O          0.94462        -3.66078         2.34509
H          1.78467        -3.83409         2.84145
O          5.33010         5.55496         1.88877
H          6.29889         5.47996         2.06308
O         -5.41231         5.32428         2.86392
H         -5.28797         4.33962         3.03433
O         -5.67457        -0.78015        -1.84258
H         -5.09959         0.00095        -2.01036
O         -1.13117        10.03749         1.36625
H         -0.31904         9.61707         1.78611
O          4.82084         1.30710        -1.84623
H          3.87945         1.51649        -2.07282
O         10.71565        -2.77750         1.06181
H         10.10512        -2.23533         1.61425
O          5.92333         5.43041        -1.74894
H          6.75563         5.46066        -2.27962
O          1.15926        -9.28188        -1.81940
H          2.00210        -8.93774        -2.18233
H         12.19972        -1.20715        -1.02807
H         12.16796         1.23783        -0.96711
H         10.93075         3.40674        -1.03920
H          9.76153         5.57093        -0.53062
H          8.36365         7.90249        -0.51908
H          7.04164         9.96609        -0.51977
H          5.01086        11.19669        -0.02259
H          2.57108        10.98140        -0.75976
H          0.09370        10.87212        -1.24856
H         -2.38471        10.56866        -1.61217
H         -5.05617        10.86513        -1.46699
H         -6.97310         9.62449        -1.18510
H         -7.78853         7.53522        -1.35624
H         -9.53999         5.58610        -0.59865
H        -10.66284         3.51137        -1.14694
H        -11.95306         1.29046        -1.46276
H        -12.14577        -1.07604        -1.03550
H        -10.79734        -3.32900        -1.51019
H         -9.68832        -5.52153        -0.95709
H         -8.36574        -7.76433        -1.05118
H         -7.09757        -9.98423        -0.88635
H         -4.90502       -11.03451        -1.23677
H         -2.44765       -10.97959        -1.27080
H         -0.10945       -11.04123         0.30323
H          2.60903       -11.16902        -0.23357
H          5.09647       -11.17202         0.04333
H          7.20051        -9.90773         0.05166
H          8.39497        -7.75336        -0.19805
H          9.67923        -5.57284        -0.27779
H         10.84477        -3.49330        -0.85649
