         429
 CSIRO Nanostructure Databank - Neutral Graphene Oxide Data Set
C          1.26527         3.34458         0.71820
C          0.09256         4.02628         1.05149
C          1.25974         6.16616         0.90086
C          0.08452         5.41374         1.15957
C          1.27004         7.61345         0.94956
C          0.21453         8.37638         1.45656
C          1.34840        10.50673         0.94673
C          0.21445         9.77264         1.42028
C          1.34587        11.97025         0.83429
C          0.29488        12.76317         1.23988
C          1.20016        14.80167         0.22140
C          0.24112        14.17078         0.96641
C          1.06887        16.20335        -0.27421
C         -0.02969        17.08438         0.16025
C          1.13889        19.14886        -0.55610
C          0.02068        18.44103         0.00038
C          1.16938        20.56764        -0.66319
C         -0.03167        21.31616        -0.60275
C          1.17178        23.41978        -0.86668
C         -0.02069        22.69913        -0.71383
C          1.07580        24.91789        -1.05717
C          0.07373        25.56686        -0.14864
C          1.32740        27.66035        -0.22461
C          0.20441        26.88537         0.18328
C          1.40092        29.11196         0.16770
C          0.08510        29.83688         0.07159
C          1.20906        31.99215        -0.20422
C          0.03124        31.18988         0.00752
C          1.21008        33.38628        -0.10107
C          0.14549        34.06265         0.53965
C          1.29353        36.20642         0.49325
C          0.17121        35.43044         0.80234
C          1.37722        37.56123         0.92815
C          3.70243         3.33492         0.24283
C          2.46394         4.05523         0.49633
C          3.73975         6.19412         0.23136
C          2.44765         5.47105         0.56668
C          3.76247         7.66541         0.61976
C          2.42938         8.32184         0.29290
C          3.76072        10.42934         0.15772
C          2.45432         9.79801         0.51264
C          3.68478        11.92373         0.04781
C          2.50523        12.60231         0.21876
C          3.65366        14.75253        -0.61248
C          2.38359        14.01435        -0.21216
C          3.60814        16.23530        -0.43263
C          2.31088        16.90225        -0.78259
C          3.67284        19.13355        -0.91645
C          2.33476        18.39352        -0.91760
C          3.65151        20.60300        -0.83797
C          2.41996        21.27858        -0.83407
C          3.62887        23.40045        -1.21471
C          2.41379        22.72054        -0.95393
C          3.58273        24.86148        -1.44473
C          2.40667        25.61398        -0.98767
C          3.72632        27.71860        -0.94608
C          2.46874        26.99097        -0.76290
C          3.69948        29.17916        -0.82562
C          2.51932        29.84292        -0.51992
C          3.69615        32.05278        -0.63338
C          2.39655        31.30776        -0.84009
C          3.68473        33.44844        -0.53544
C          2.35373        34.15203        -0.77668
C          3.70742        36.29352        -0.11704
C          2.35123        35.70688        -0.46370
C          3.73451        37.66965         0.27870
C          2.51751        38.30004         0.73025
C          6.20274         3.34953         0.23686
C          4.91909         3.95892         0.40048
C          6.12515         6.09854         1.14664
C          4.88363         5.39215         0.78996
C          6.13485         7.57938         1.19947
C          4.89770         8.34463         1.01005
C          6.13597        10.70744         0.87484
C          4.84601         9.90856         1.14806
C          6.18753        11.94224         0.18613
C          4.96203        12.56269        -0.33933
C          6.21660        14.81706        -0.32067
C          4.98975        14.07482        -0.60387
C          6.19162        16.27508         0.11800
C          4.87454        17.00752        -0.18081
C          6.11805        19.13242        -0.63306
C          4.92109        18.43418        -0.56822
C          6.09817        20.53855        -0.95599
C          4.90234        21.28223        -0.98436
C          6.10005        23.43108        -1.36983
C          4.89633        22.72572        -1.22248
C          6.18866        24.87956        -1.82702
C          4.86368        25.62403        -1.67153
C          6.17472        27.75854        -1.46455
C          4.87733        27.05643        -1.31101
C          6.17610        29.25539        -1.28386
C          4.90523        29.93661        -0.99471
C          6.16765        32.03639        -0.67193
C          4.91968        31.33033        -0.74521
C          6.15012        33.45105        -0.52924
C          4.91396        34.15798        -0.48056
C          6.15793        36.29384        -0.16109
C          4.91078        35.59333        -0.26862
C          6.16746        37.70627         0.05448
C          4.94516        38.36701         0.32745
C          8.64246         3.41125         0.19983
C          7.39587         4.01957         0.48865
C          8.65235         6.19656         0.90836
C          7.44453         5.34008         1.25068
C          8.63320         7.57596         1.20619
C          7.34272         8.09721         1.62569
C          8.61211        10.69805         1.00432
C          7.35053        10.25867         1.40965
C          8.63564        12.03613         0.48613
C          7.41020        12.67652         0.12147
C          8.65072        14.82857         0.00872
C          7.42406        14.10272        -0.13683
C          8.70363        16.26415        -0.47158
C          7.41047        17.03381        -0.34577
C          8.64048        19.13486        -0.66801
C          7.39635        18.40575        -0.53992
C          8.63964        20.52785        -0.93897
C          7.36968        21.19451        -1.28633
C          8.63733        23.44634        -1.24005
C          7.37646        22.71192        -1.47732
C          8.62568        24.86806        -1.13174
C          7.40781        25.60986        -1.27830
C          8.64020        27.72321        -0.92180
C          7.42705        27.00206        -1.20099
C          8.63026        29.17264        -0.80050
C          7.43727        29.91452        -0.89980
C          8.62897        32.02382        -0.45250
C          7.40720        31.32105        -0.68032
C          8.59590        33.44384        -0.32486
C          7.39757        34.15273        -0.40579
C          8.60034        36.33112        -0.33844
C          7.39533        35.60578        -0.29315
C          8.59733        37.74037        -0.21417
C          7.40071        38.40866         0.02402
C         11.08853         3.49394         0.02753
C          9.83916         4.13465         0.24429
C         11.02374         6.32763         0.32050
C          9.83565         5.56339         0.49071
C         11.00056         7.74716         0.56940
C          9.79311         8.40838         0.98312
C         11.02538        10.57114         0.93039
C          9.81530         9.86914         1.06129
C         11.02745        12.05834         1.20906
C          9.84030        12.76895         0.58825
C         11.00700        14.95181         0.86331
C          9.82772        14.16527         0.40140
C         11.02263        16.44405         0.67323
C          9.86593        17.08444         0.02422
C         11.09485        19.17925        -0.35036
C          9.88194        18.45693        -0.31434
C         11.08943        20.52198        -0.93522
C          9.82552        21.28243        -0.98879
C         11.08396        23.44861        -1.02986
C          9.84657        22.71593        -1.13660
C         11.07251        24.83178        -0.83806
C          9.84689        25.57173        -0.87655
C         11.09333        27.71499        -0.48989
C          9.84842        27.00036        -0.75576
C         11.07563        29.14937        -0.39634
C          9.85780        29.87623        -0.52885
C         11.09838        32.01141        -0.21394
C          9.85414        31.29683        -0.38387
C         11.11720        33.43865        -0.13702
C          9.83650        34.20673         0.06325
C         11.12683        36.33171        -0.18486
C          9.88603        35.57859        -0.60942
C         11.12783        37.74370        -0.11474
C          9.86846        38.53701        -0.38502
C         13.51316         3.44754        -0.17831
C         12.25920         4.21045        -0.16377
C         13.35022         6.47513        -0.41087
C         12.21456         5.66840        -0.14113
C         13.40866         7.84268        -0.00547
C         12.21493         8.49574         0.41814
C         13.48375        10.61839         0.54012
C         12.24601         9.90423         0.64524
C         13.51150        12.06806         0.71190
C         12.33174        12.75432         0.89826
C         13.61277        14.98006         1.06354
C         12.30573        14.22127         1.10964
C         13.61816        16.43514         0.73320
C         12.33980        17.17970         0.71286
C         13.66143        19.13515        -0.32673
C         12.36282        18.60277         0.14412
C         13.67891        20.47734        -0.96830
C         12.38053        21.22161        -1.17285
C         13.68317        23.45618        -1.00036
C         12.38417        22.72811        -1.21058
C         13.63929        24.93313        -0.70552
C         12.30376        25.51487        -0.27492
C         13.50835        27.70283         0.08259
C         12.29777        27.02032        -0.31100
C         13.46064        29.13202         0.19255
C         12.29559        29.85161        -0.12427
C         13.56075        32.01040        -0.06942
C         12.31061        31.29797        -0.13104
C         13.57294        33.45777        -0.04208
C         12.31571        34.14976        -0.05419
C         13.52510        36.29585         0.30969
C         12.31357        35.60374         0.03014
C         13.52667        37.72253         0.36565
C         12.30995        38.42486         0.16376
C         15.97357         3.41693        -0.87924
C         14.58475         3.81484        -0.93424
C         15.76000         6.51913        -1.00112
C         14.49774         5.98088        -1.10075
C         15.87084         7.84640        -0.45466
C         14.65701         8.53315        -0.04242
C         15.97569        10.59188         0.47173
C         14.67645         9.91759         0.27679
C         16.02454        12.06448         0.53015
C         14.79200        12.78544         0.64491
C         16.10022        14.86445         0.91191
C         14.82483        14.17609         0.79967
C         16.09694        16.42819         0.77574
C         14.80614        17.10588         0.48821
C         16.16273        19.02526        -0.55562
C         14.83255        18.44858        -0.06387
C         16.17482        20.53084        -0.46183
C         14.98679        21.26250        -0.89997
C         16.06370        23.37561        -0.23978
C         14.93943        22.72066        -0.71589
C         15.93807        24.73110         0.43221
C         14.86018        25.62025        -0.18087
C         15.93987        27.61798         0.97812
C         14.71996        27.00350         0.30154
C         15.95937        29.14599         0.84349
C         14.68042        29.88121         0.54004
C         16.03356        31.94082         0.05194
C         14.74504        31.28905         0.12057
C         16.05023        33.50327         0.06973
C         14.76277        34.17831         0.19013
C         15.95253        36.27043         0.83668
C         14.75507        35.58624         0.47889
C         15.96038        37.72249         0.80892
C         14.75555        38.39863         0.55037
C         18.32734         3.63270        -1.30300
C         17.02121         4.25385        -1.19207
C         18.24249         6.47095        -1.36547
C         16.93118         5.74349        -1.59360
C         18.27973         7.84871        -1.04227
C         17.10717         8.50380        -0.48977
C         18.59191        10.51617         0.11712
C         17.24325         9.81637         0.16057
C         18.50613        12.03400         0.18518
C         17.27888        12.73449         0.44953
C         18.55636        14.86430         0.50046
C         17.33723        14.15437         0.59536
C         18.58719        16.30548         0.54281
C         17.37102        17.05018         0.44941
C         18.58761        19.13677         0.15008
C         17.39663        18.41785         0.07306
C         18.60316        20.55027        -0.05586
C         17.34171        21.24068        -0.21474
C         18.53687        23.39176        -0.08211
C         17.31323        22.67136        -0.13479
C         18.51141        24.81690         0.03362
C         17.31318        25.45293         0.70531
C         18.39070        27.67190         0.34645
C         17.24168        26.96178         0.53033
C         18.44734        29.12416         0.51025
C         17.23743        29.84997         0.59749
C         18.48428        31.96554         0.57372
C         17.26305        31.24595         0.45415
C         18.46950        33.40029         0.73977
C         17.25036        34.13345         0.60589
C         18.31237        36.01288         1.64681
C         17.15210        35.47782         1.04453
C         18.33228        38.14347         1.46757
C         17.16191        38.53109         0.82533
C         19.45343         4.33123        -1.59949
C         20.66879         6.48960        -1.63334
C         19.45482         5.78103        -1.58199
C         20.67669         7.87700        -1.49471
C         19.50412         8.56601        -1.16785
C         20.77731        10.77737        -1.00230
C         19.43707        10.08053        -1.08531
C         20.88310        11.99005        -0.42776
C         19.70774        12.71961         0.04987
C         20.98416        14.85902         0.20972
C         19.77355        14.14701         0.25614
C         21.01299        16.24684         0.36363
C         19.83453        16.98507         0.48511
C         21.07716        19.19912         0.18880
C         19.84321        18.48462         0.68913
C         21.04968        20.50961        -0.13870
C         19.81040        21.26873        -0.14566
C         20.94462        23.47738        -0.49168
C         19.78262        22.70037        -0.25175
C         20.87159        24.85738        -0.53174
C         19.67513        25.54212        -0.19794
C         20.88027        27.68017         0.43008
C         19.66190        27.05144        -0.20628
C         20.89016        28.99893         0.71255
C         19.68175        29.80556         0.59404
C         20.90519        31.96776         0.94314
C         19.70275        31.23397         0.71550
C         20.88677        33.33063         1.14535
C         19.67314        34.07222         1.11419
C         20.74175        36.30380         1.71817
C         19.60516        35.46326         1.51000
C         20.75626        37.70023         1.58024
C         19.67786        38.54643         1.27241
O         12.96171        14.64289         2.34873
O         15.37995        24.31853         1.66691
O         14.51561        25.62676        -1.63221
O         10.65339        15.82934         1.98132
O         16.22989        32.74633        -1.15865
O          1.40659        16.29608        -1.71913
O         14.33593         4.83093        -1.88939
O         12.33344        18.33890         1.59880
O          3.92895        16.70211         0.93686
O          2.16529        34.00421        -2.18255
O         15.18083        29.73894         1.95013
O         14.48665        20.64710        -2.16861
O         11.72363        20.59797        -2.32655
O          5.16509         5.61722         2.20799
O          3.98896        25.30864        -2.81446
O          7.30616         9.26478         2.38387
O         16.14384        15.76216         2.06822
O          2.76790        14.23038        -1.61859
O         18.16483        37.14109         2.45453
O          6.22994        28.63504        -2.63487
O         16.72987         9.87664         1.53908
O          3.00602        18.71669        -2.17918
O          7.40859        21.78813        -2.62517
O         13.15686        23.21734        -2.35588
O          5.09416        13.08977        -1.69463
O          6.46420        24.78742        -3.25118
H          5.59482        24.69400        -3.70604
O         12.24429        25.15986         1.15491
H         11.48529        25.63215         1.55703
O         19.82673        18.67947         2.14692
H         19.76355        19.64405         2.31355
O         10.85835        12.18391         2.66181
H         11.05085        13.11361         2.91458
O         17.60200        25.27012         2.10859
H         16.74293        24.90423         2.48285
O          2.20438         8.16368        -1.16865
H          2.84450         8.79531        -1.59005
O         15.77885        27.29767         2.38366
H         15.26778        28.03939         2.78482
O          8.94406        16.11486        -1.93441
H          8.89422        17.01169        -2.33248
O          0.59936        25.12969        -2.44546
H          1.37561        25.04046        -3.04046
O          7.62844         4.97536         2.64728
H          6.72207         4.85108         3.01789
O         19.31826        10.08180         1.29135
H         18.67393        10.08009         2.03540
O         16.26106        18.65279        -1.97015
H         15.63219        19.24128        -2.46077
O          3.90655         6.13372        -1.21427
H          3.17752         6.68747        -1.59396
O          6.34088        16.23597         1.57443
H          5.43589        16.28500         1.96197
O         16.74155         5.72846        -3.04384
H         15.86795         5.30119        -3.20013
O          2.11391        31.38620        -2.27476
H          2.09536        32.38017        -2.48419
O         19.70795        27.42560        -1.62483
H         19.73034        28.40530        -1.66938
O          1.76918        29.13516         1.61042
H          1.08526        28.62076         2.09060
O          9.98074        35.35211        -2.04267
H         10.18281        36.20589        -2.47808
O          4.18621         9.95789        -1.16852
H          4.28968        10.73565        -1.75957
O          9.91075        39.04647        -1.73863
H          9.72593        38.30632        -2.35239
O         18.74229        10.54192        -2.27675
H         19.24727        10.24217        -3.06106
O          9.73240        34.46859         1.49791
H          9.73620        33.60623         1.96334
O          4.41232        10.22288         2.48148
H          5.11132         9.91755         3.09950
O          1.93152        36.36775        -1.68793
H          1.91514        35.62269        -2.36783
H          1.26523         2.24722         0.65173
H         -0.83274         3.46195         1.23343
H         -0.85254         5.92747         1.41386
H         -0.65916         7.87073         1.89283
H         -0.66651        10.31107         1.79457
H         -0.56546        12.31694         1.75680
H         -0.64753        14.72123         1.30582
H         -0.90561        16.63818         0.65185
H         -0.83873        19.02866         0.35341
H         -0.99592        20.79775        -0.52326
H         -0.98003        23.23371        -0.71332
H         -0.80170        25.00362         0.20197
H         -0.57545        27.35884         0.79963
H         -0.84898        29.26583         0.17477
H         -0.94996        31.68605         0.06141
H         -0.69619        33.47764         0.94058
H         -0.65853        35.88667         1.36347
H          0.50288        38.01291         1.42124
H          3.64946         2.26063         0.01044
H          2.55354        39.35787         1.02972
H          6.24800         2.32504        -0.16613
H          4.95305        39.43219         0.60252
H          8.66430         2.36197        -0.13320
H          7.40107        39.49987         0.16249
H         11.11912         2.39481         0.00239
H          9.84603        39.43529         0.28290
H         13.58187         2.57649         0.49019
H         12.30870        39.52387         0.20835
H         16.20817         2.38214        -0.57875
H         14.76373        39.49792         0.50744
H         18.37617         2.53820        -1.19515
H         17.14492        39.47059         0.25216
H         20.41164         3.80917        -1.73623
H         21.60851         5.94639        -1.80639
H         21.63057         8.41066        -1.59862
H         21.66870        10.31872        -1.45393
H         21.86377        12.48529        -0.40512
H         21.93622        14.33074         0.07125
H         21.98872        16.75039         0.36064
H         22.04598        18.68105         0.22270
H         21.98718        21.01894        -0.40382
H         21.90803        22.98487        -0.68031
H         21.77452        25.43529        -0.77426
H         21.79470        27.08344         0.56113
H         21.80984        29.46869         1.08946
H         21.86472        31.43712         1.00645
H         21.82839        33.84715         1.37722
H         21.72823        35.82015         1.78350
H         21.75729        38.15963         1.54364
H         19.88979        39.52496         0.81705
