         276
 CSIRO Nanostructure Databank - Neutral Graphene Oxide Data Set
C        -11.31686         0.58371        -0.18902
C        -10.11591         1.41604        -0.17479
C         -8.80959         0.67821         0.08901
C         -7.54946         1.44276        -0.37711
C         -6.24298         0.76022        -0.14066
C         -5.16637         1.49040         0.62790
C         -3.90110         0.77805         1.01180
C         -2.64649         1.55187         1.36790
C         -1.34054         0.82199         1.52386
C         -0.02715         1.59075         1.48164
C          1.28599         0.81599         1.50383
C          2.59078         1.56411         1.49618
C          3.89862         0.86621         1.15976
C          5.18647         1.55846         1.55471
C          6.46008         0.76004         1.44631
C          7.65659         1.46521         0.84433
C          8.98607         0.77955         0.91116
C         10.25058         1.51548         0.63990
C         11.43075         0.68553         0.23511
C        -10.17315         2.78042        -0.16612
C         -8.95595         3.64542        -0.29839
C         -7.63829         2.94163        -0.34506
C         -6.33003         3.66401        -0.14236
C         -5.27860         3.02863         0.77713
C         -3.89912         3.72723         0.69566
C         -2.61249         3.03033         1.02218
C         -1.33929         3.45491         0.27238
C         -0.04382         3.00241         0.98444
C          1.27429         3.65320         0.62805
C          2.57297         3.01994         1.06745
C          3.85687         3.83074         1.18710
C          5.21158         3.11508         1.55057
C          6.42082         3.75781         0.81234
C          7.62421         2.91124         0.47814
C          8.88815         3.65323         0.15419
C         10.26397         3.01090         0.31688
C         -8.99259         5.14861         0.01761
C         -7.65878         5.90334        -0.17690
C         -6.37407         5.15193        -0.16978
C         -5.12805         5.86526         0.25844
C         -3.88453         5.05441        -0.01985
C         -2.58414         5.71006        -0.32462
C         -1.29862         4.92539        -0.20054
C         -0.01644         5.69949        -0.28981
C          1.20783         5.13864         0.38553
C          2.49653         5.87332         0.24126
C          3.82175         5.19795         0.53948
C          5.01013         5.66988        -0.25206
C          6.34563         5.06343         0.07870
C          7.48938         5.48100        -0.84904
C          8.80341         4.88297        -0.39839
C         -7.62833         7.25851        -0.14942
C         -6.41058         8.13432         0.16382
C         -5.09844         7.34973         0.23759
C         -3.78241         8.01467        -0.09452
C         -2.53246         7.21407        -0.28546
C         -1.30490         7.93085        -0.78977
C         -0.02169         7.19083        -0.61068
C          1.22824         7.98254        -0.21231
C          2.43697         7.12612        -0.58654
C          3.63848         7.66623        -1.25860
C          4.93622         6.89255        -1.12859
C          6.22062         7.64198        -1.50168
C          7.47023         6.97929        -0.97378
C         -6.27443         9.41830        -0.62875
C         -5.10593        10.00111        -0.94210
C         -3.78607         9.26728        -0.96499
C         -2.51312        10.06635        -0.74416
C         -1.32151         9.42582        -0.69888
C          0.00117        10.18808        -0.58235
C          1.25415         9.35899        -0.85589
C          2.38041         9.87616        -1.38584
C          3.67093         9.12557        -1.70782
C          4.92880         9.76919        -1.15975
C          6.08677         9.09611        -1.08950
C        -11.30501        -0.76482        -0.34796
C        -10.05723        -1.51891        -0.60477
C         -8.77684        -0.75914        -0.47597
C         -7.49681        -1.53006        -0.24577
C         -6.22804        -0.75569        -0.10224
C         -4.96665        -1.45593         0.29702
C         -3.76095        -0.69467         0.71801
C         -2.59180        -1.40190         1.35117
C         -1.32034        -0.63085         1.13785
C         -0.04058        -1.35881         0.92751
C          1.26728        -0.59879         0.96731
C          2.55540        -1.32998         0.73665
C          3.89045        -0.60265         0.86338
C          5.12808        -1.44935         1.03434
C          6.43328        -0.76141         1.28822
C          7.71857        -1.47431         0.93711
C          8.97689        -0.71561         0.71302
C          9.96642        -1.25181        -0.30536
C         11.32479        -0.60916        -0.11141
C         -9.96852        -2.98646        -0.63025
C         -8.78289        -3.69505        -0.41904
C         -7.55624        -2.99718         0.14806
C         -6.21189        -3.71522        -0.13730
C         -5.09068        -2.92013         0.58598
C         -3.88058        -3.62838         1.10707
C         -2.57973        -2.89477         1.38737
C         -1.26226        -3.63967         1.27978
C         -0.03739        -2.87074         0.83723
C          1.25439        -3.59684         0.62020
C          2.55912        -2.83856         0.80138
C          3.83608        -3.56808         0.53345
C          5.10981        -2.77561         0.26769
C          6.34601        -3.64347         0.50490
C          7.66059        -2.93233         0.54266
C          8.83066        -3.51433        -0.17269
C          9.91951        -2.76061        -0.46055
C         -8.70488        -5.09997        -0.53646
C         -7.56094        -5.84695        -0.11033
C         -6.47311        -5.03994         0.59048
C         -5.18293        -5.85977         0.96185
C         -3.85932        -5.07872         0.74603
C         -2.54509        -5.81888         0.75376
C         -1.24394        -5.12394         1.08277
C          0.01790        -5.85873         0.66702
C          1.37315        -5.12870         0.76718
C          2.41569        -5.58955        -0.27683
C          3.72530        -4.86872        -0.23414
C          4.99117        -5.67564        -0.39569
C          6.28724        -5.08456         0.05497
C          7.63325        -5.79133        -0.12261
C          8.64208        -4.87187        -0.85534
C         -7.54731        -7.22287        -0.18368
C         -6.39141        -8.06977         0.28586
C         -5.13443        -7.21276         0.24781
C         -3.82714        -7.95176         0.20072
C         -2.64908        -7.30651         0.83276
C         -1.33654        -7.82886        -0.59135
C         -0.07124        -7.19328         0.00465
C          1.11404        -7.78561        -0.70662
C          2.36506        -6.98881        -0.84357
C          3.63854        -7.65129        -1.32203
C          4.95367        -6.93010        -1.22926
C          6.27918        -7.67325        -1.48629
C          7.46008        -7.15473        -0.71696
C         -6.18519        -9.32444        -0.54252
C         -5.01132        -9.97397        -0.58071
C         -3.82062        -9.47622         0.21121
C         -2.47189       -10.05963        -0.18494
C         -1.34341        -9.34569        -0.43822
C         -0.02459        -9.97698        -0.60954
C          1.13288        -9.27306        -0.74188
C          2.51401        -9.89659        -0.73373
C          3.56562        -9.15567        -1.61654
C          4.92327        -9.81147        -1.39573
C          6.09573        -9.17109        -1.30311
O         -0.09909         2.71847         2.40096
O          1.83730        -0.75629        -0.37974
O         -4.95711        -3.26130         2.00101
O         -3.12153        -5.29089        -0.47619
O         -4.38244        -7.31534        -0.97482
O          4.79470         5.56461        -1.70158
O          7.32488         1.87944        -0.53304
O          1.69390         5.98004         1.45595
O          2.62176         6.91096        -2.00962
O         -6.66008         1.13421        -1.48681
O          2.80645        -4.66759        -1.33988
O          4.16704        -6.85397        -2.44834
O          0.42840        -3.25253        -0.50747
O          7.09828        -3.61406         1.73277
O         -5.96263         4.35422        -1.35354
O         -8.29543         3.39633        -1.57813
O          5.91365         1.11069         2.73223
O          8.78593        -1.39772         1.96384
O         -2.84141         7.87931         0.99756
O         -1.07711        -4.55144         2.41528
O          5.48342        -5.92225         0.96906
O         -2.14435         1.15914         2.68033
O          3.89045         5.06024         1.97894
O         -0.82528        -0.81879        -0.20914
O         -0.49002         4.93891        -1.42988
O          0.08097        -7.12803         1.43416
O         -5.08348         6.59081         1.50709
O         -1.81774        -7.31656        -1.63223
O         -7.62300        -3.18133         1.60507
O         -0.56766         7.43454        -1.94004
O         -9.28730        -0.93912        -1.78965
O         -3.22295         3.89087         1.99655
O          4.01663         0.38320        -0.21515
O          9.83093         1.22479         2.01663
O          2.02534         1.07961         2.74033
O         -4.99621         0.92751         1.97148
O         -3.42353         5.13701        -1.38764
O         -2.70637        -2.08705         2.61114
O         -7.11658        -4.57466         1.84172
O         -8.64268         0.57853         1.46584
O          1.22244         8.20739         1.16476
O          1.38656        -7.09183        -1.95032
O         -6.62135        -1.34208        -1.39758
O          2.11007         2.98854        -0.34951
O         -3.90143        -1.11404        -0.66698
O          6.76328         5.03261         1.46120
O          5.69198        -1.43557         2.35653
O          3.34971        -3.41290         1.88662
O         -6.69642         8.61155         1.50973
H         -6.36414         7.92177         2.13035
O         -3.70831         8.72244        -2.32422
H         -3.73006         9.46961        -2.95785
O          5.42253         3.41228         2.93531
H          5.46036         4.39104         3.02895
O          3.17107        -9.34470        -2.98397
H          3.38776        -8.52415        -3.47859
O          6.36868         7.56376        -2.94680
H          6.14681         6.63513        -3.19065
O          3.78459         9.12172        -3.14941
H          3.16454         8.43454        -3.47985
O         -5.83217         3.29603         2.07505
H         -5.32323         2.77214         2.73596
O         -0.02951        11.34700        -1.41238
H         -0.13245        11.05753        -2.34201
O         -1.41576         2.63063        -0.91306
H         -0.97267         3.11359        -1.65165
O          5.16922        -2.46452        -1.14180
H          4.41047        -1.89289        -1.39218
O         -5.92202        -3.92332        -1.49887
H         -5.93396        -3.04608        -1.95412
O         -4.01471        -9.85226         1.61770
H         -4.95027        -9.61302         1.85400
O          9.46092        -0.74004        -1.58495
H         10.12682        -0.93509        -2.27736
O         -2.25708        -7.86138         1.99368
H         -2.68205        -8.75778         2.10457
O         11.01838         3.22202        -0.88382
H         10.52478         2.82719        -1.63196
O         -5.24895        -6.16936         2.36933
H         -5.54808        -5.34987         2.83430
O         -6.57003        -8.50683         1.66953
H         -6.50820        -7.70489         2.24320
O          1.93217        -5.47626         2.03637
H          1.21203        -5.57546         2.69457
O          6.62351        -7.47653        -2.89331
H          5.78720        -7.23779        -3.35967
O          8.19503        -6.00234         1.19254
H          7.45116        -6.17005         1.81248
O          2.95820        -9.85544         0.62928
H          3.81920       -10.31897         0.69219
O          8.08957        -4.61785        -2.14712
H          8.70001        -4.04573        -2.65476
O         -9.41332         5.33725         1.37489
H         -8.73546         4.96525         1.97634
O          7.23275         4.92441        -2.17778
H          8.00046         5.14709        -2.74535
H         12.22658        -1.19138        -0.35747
H         12.42164         1.16096         0.29608
H         10.81841         3.53873         1.13563
H          9.73120         5.40564        -0.68222
H          8.42235         7.49964        -1.17516
H          6.99309         9.60343        -0.72437
H          4.89087        10.82727        -0.85919
H          2.34292        10.91096        -1.76692
H          0.08608        10.54833         0.47907
H         -2.55546        11.16578        -0.70177
H         -5.11860        10.99934        -1.41073
H         -7.20509         9.99360        -0.75661
H         -8.58970         7.79576        -0.09321
H         -9.77496         5.62523        -0.62620
H        -11.15405         3.28112        -0.21696
H        -12.28583         1.09281        -0.06441
H        -12.24921        -1.32899        -0.32459
H        -10.88795        -3.55700        -0.83846
H         -9.56555        -5.65108        -0.94464
H         -8.40088        -7.73137        -0.65951
H         -7.04559        -9.71054        -1.11013
H         -4.90176       -10.89138        -1.17756
H         -2.40363       -11.15880        -0.12763
H          0.00974       -11.07847        -0.59258
H          2.45615       -10.96454        -1.08151
H          4.91880       -10.91368        -1.35330
H          7.01865        -9.76241        -1.19131
H          8.29951        -7.85350        -0.57298
H          9.63308        -5.39496        -0.95006
H         10.73133        -3.21258        -1.05742
