         344
 CSIRO Nanostructure Databank - Neutral Graphene Oxide Data Set
C          1.27683         3.43395         0.98152
C          0.07717         4.11426         1.09570
C          1.21569         6.27644         0.92361
C          0.04124         5.51807         1.04780
C          1.16581         7.71942         0.78028
C          0.00006         8.41523         0.46826
C          1.15666        10.59136         0.36828
C         -0.01182         9.81303         0.32613
C          1.12371        12.01623         0.14468
C         -0.04532        12.75762         0.09912
C          1.13668        14.91376        -0.08996
C         -0.04334        14.16578        -0.02991
C          1.13114        16.36549        -0.00852
C         -0.05034        17.10493         0.26655
C          1.16634        19.23176         0.21858
C         -0.03850        18.48133         0.36653
C          1.17530        20.66123         0.22765
C          0.03855        21.44328         0.60227
C          1.14889        23.55264        -0.03338
C         -0.01191        22.81513         0.52861
C          1.11094        24.97924        -0.51568
C         -0.10027        25.82991        -0.39736
C          1.29747        27.74845         0.35026
C         -0.01637        27.13118        -0.07740
C          1.31425        29.25660         0.35260
C          3.72478         3.46696         0.70108
C          2.49872         4.14984         0.84719
C          3.70619         6.28783         0.75137
C          2.47943         5.58767         0.86304
C          3.74268         7.74802         0.93147
C          2.39571         8.50321         0.94907
C          3.64564        10.60714         0.53812
C          2.42434         9.93179         0.59516
C          3.61419        12.12156         0.57064
C          2.42818        12.69308        -0.20295
C          3.60354        14.88283        -0.18226
C          2.40138        14.21053        -0.10945
C          3.59152        16.34137        -0.57997
C          2.35209        17.08568        -0.12712
C          3.67240        19.18107         0.04647
C          2.37133        18.47769         0.00263
C          3.69884        20.67264        -0.00731
C          2.39944        21.40597        -0.28414
C          3.74140        23.57506        -0.05711
C          2.44845        22.83847         0.32872
C          3.67530        25.08900        -0.23376
C          2.40967        25.72394        -0.87228
C          3.64886        27.86786        -0.46491
C          2.46600        27.17982        -0.41333
C          3.73075        29.26577        -0.05788
C          2.46925        29.94191         0.22708
C          6.16979         3.47322         0.39423
C          4.93438         4.16235         0.52849
C          6.14554         6.32960         0.36446
C          4.92259         5.60402         0.53806
C          6.14872         7.76515         0.32224
C          4.94253         8.49606         0.55347
C          6.13169        10.63590         0.26965
C          4.90283         9.91039         0.50074
C          6.12709        12.06002         0.13831
C          4.89948        12.79554         0.13736
C          6.10488        14.90370        -0.27790
C          4.86994        14.16737        -0.13449
C          6.09603        16.30643        -0.32509
C          4.89155        17.05343        -0.30568
C          6.14589        19.18237        -0.42575
C          4.92045        18.44671        -0.22415
C          6.11516        20.62785        -0.61514
C          4.95847        21.33272        -0.44205
C          6.12038        23.51456        -1.14282
C          4.97888        22.81696        -0.42049
C          6.19185        24.97858        -0.81511
C          4.91828        25.69081        -0.89191
C          6.20380        27.86943        -0.68550
C          4.91585        27.21270        -0.89869
C          6.20769        29.27353        -0.31078
C          4.93895        29.91830        -0.00942
C          8.61779         3.45967         0.22522
C          7.38009         4.16072         0.25304
C          8.57171         6.32292         0.03612
C          7.36802         5.61663         0.19971
C          8.58735         7.73639         0.00468
C          7.36734         8.46852         0.12237
C          8.56585        10.62147        -0.10014
C          7.35859         9.91733         0.09870
C          8.58315        12.03721        -0.10295
C          7.35606        12.75988        -0.05079
C          8.58375        14.86579        -0.37358
C          7.36427        14.18452        -0.22366
C          8.56448        16.32645        -0.75763
C          7.39635        17.04478        -0.10084
C          8.61081        19.19682        -0.62547
C          7.35755        18.50068        -0.49609
C          8.63443        20.58673        -0.77363
C          7.36868        21.29799        -1.16983
C          8.60648        23.47481        -0.73650
C          7.41652        22.78747        -0.93457
C          8.63524        24.93891        -0.67750
C          7.39679        25.67030        -0.78413
C          8.65434        27.81091        -0.62788
C          7.40322        27.12981        -0.72385
C          8.66500        29.31413        -0.77673
C          7.40132        29.95225        -0.25867
C         11.07620         3.44928         0.14902
C          9.84955         4.11859         0.09116
C         11.05169         6.29636         0.37622
C          9.86144         5.58960        -0.26565
C         11.05764         7.76508         0.01587
C          9.85196         8.43050        -0.12175
C         11.05694        10.59620         0.13161
C          9.84324         9.89766        -0.47699
C         11.06704        12.06944        -0.17282
C          9.82856        12.76051        -0.18788
C         11.06742        14.89928        -0.31265
C          9.82587        14.17832        -0.31055
C         11.06248        16.33650        -0.31978
C          9.85734        17.05564        -0.48050
C         11.08956        19.18175        -0.43828
C          9.85237        18.46087        -0.49444
C         11.08269        20.59894        -0.45102
C          9.84901        21.32422        -0.61551
C         11.04134        23.47258        -0.06142
C          9.83298        22.73911        -0.57426
C         11.09367        24.94536        -0.40203
C          9.84491        25.64440        -0.51657
C         11.09332        27.78448        -0.27094
C          9.85240        27.09198        -0.52142
C         11.07850        29.23845        -0.08389
C          9.92329        29.94824        -0.25921
C         13.54145         3.44745        -0.10616
C         12.32893         4.14221         0.03451
C         13.54278         6.28455        -0.06565
C         12.34144         5.57659         0.05278
C         13.53944         7.73320        -0.08317
C         12.32269         8.44896        -0.07504
C         13.52909        10.55846        -0.40923
C         12.34669         9.87967        -0.19178
C         13.50881        12.02157        -0.61974
C         12.26782        12.75875        -0.31825
C         13.56091        14.86763        -0.25523
C         12.30365        14.18650        -0.33596
C         13.52689        16.29305         0.22526
C         12.29144        17.05212        -0.19003
C         13.60543        19.13981        -0.38740
C         12.30847        18.43400        -0.30365
C         13.61065        20.62943        -0.48190
C         12.31612        21.35063        -0.38826
C         13.59686        23.45002        -0.43824
C         12.31704        22.71645        -0.29470
C         13.59404        24.94274        -0.49763
C         12.29112        25.65133        -0.33545
C         13.48228        27.72027         0.49777
C         12.28387        27.07529        -0.16653
C         13.50793        29.22666         0.38984
C         12.32748        29.90918         0.22237
C         15.96441         3.45738        -0.55505
C         14.77987         4.13575        -0.29336
C         16.00124         6.30333        -0.22532
C         14.78147         5.58770        -0.22961
C         15.98895         7.71979        -0.03863
C         14.78313         8.43584        -0.09561
C         15.99702        10.58165        -0.30044
C         14.80485         9.88165        -0.28059
C         16.10543        11.99144        -0.83337
C         14.80046        12.77959        -0.75701
C         16.03156        14.85870        -0.03802
C         14.80036        14.20381        -0.33720
C         16.04088        16.29991         0.16135
C         14.82725        17.01913         0.02162
C         16.04481        19.12237         0.20871
C         14.84695        18.42084        -0.00450
C         16.00451        20.59767         0.50800
C         14.82775        21.36319        -0.05559
C         16.00285        23.47828         0.51826
C         14.83199        22.71858        -0.06393
C         16.07754        24.93858         0.16785
C         14.91459        25.71569        -0.40912
C         15.98805        27.75268         0.50054
C         14.80888        27.08319         0.20259
C         15.95618        29.20473         0.71037
C         14.75952        29.89401         0.59891
C         18.48065         3.46683        -0.85507
C         17.17805         4.20599        -1.02147
C         18.45953         6.27792        -0.44367
C         17.24416         5.61555        -0.47362
C         18.54278         7.69602        -0.02958
C         17.25370         8.43914         0.20622
C         18.53616        10.60764        -0.22557
C         17.25005         9.96483         0.27132
C         18.52114        12.03362        -0.32441
C         17.31690        12.73487        -0.32645
C         18.49907        14.83618         0.16303
C         17.28320        14.15434        -0.09119
C         18.46000        16.19766         0.81548
C         17.24636        17.00327         0.39698
C         18.48937        19.15943         0.70217
C         17.25913        18.42138         0.45560
C         18.55271        20.54790         0.52745
C         17.31409        21.28116         0.18229
C         18.56489        23.49123         0.52044
C         17.31428        22.77466         0.20340
C         18.52719        24.89395         0.64959
C         17.26217        25.62284         0.44302
C         18.42344        27.74785         1.15159
C         17.23185        27.04518         0.55756
C         18.41260        29.23744         0.88588
C         17.20817        29.90234         0.80497
C         19.65473         4.13387        -0.80403
C         20.88139         6.30608        -0.78284
C         19.69738         5.58438        -0.70627
C         20.90823         7.72244        -0.66804
C         19.78318         8.45404        -0.31702
C         20.98714        10.66507        -0.30567
C         19.74705         9.90298        -0.29071
C         21.01741        12.01406        -0.36809
C         19.77549        12.80135        -0.66714
C         20.90493        14.99498        -0.09608
C         19.75170        14.22421        -0.12061
C         20.88039        16.37932         0.26400
C         19.74089        16.98740         0.70452
C         20.96615        19.19114         1.05350
C         19.69359        18.41124         1.22832
C         20.97608        20.53299         0.84791
C         19.76505        21.29433         0.65734
C         20.96751        23.48907         0.84290
C         19.77269        22.74142         0.64636
C         20.95179        24.86993         0.89852
C         19.74576        25.61280         0.81287
C         20.88707        27.82237         0.76201
C         19.74029        27.06304         0.85439
C         20.85097        29.25031         0.79465
C         19.66229        29.93647         0.84484
O         13.99837        12.48962        -1.95315
O          4.79577        26.44307        -2.13746
O          4.79167        23.30107         0.95708
O          0.95135        23.84875        -1.46955
O          3.12796         8.19910         2.18298
O         17.33701        22.03669        -1.06447
O         13.61270        24.14456        -1.75093
O          3.78374        20.02775         1.29312
O         18.01338         7.89589         1.34767
O         13.77232        19.82412        -1.69795
O         15.89433        20.68806         1.98317
H         15.17981        20.08140         2.27377
O         18.24426        15.92660         2.25124
H         18.58102        16.72025         2.73972
O         15.83325        23.45259         1.97089
H         15.83843        22.50210         2.25220
O         17.19528        10.31701         1.69412
H         17.69415         9.60775         2.16597
O          2.47951        25.70929        -2.30285
H          2.03969        24.88745        -2.61705
O          3.66694        25.59326         1.14099
H          4.24155        24.99122         1.67051
O          8.34084        16.37828        -2.19495
H          9.10205        15.95041        -2.63927
O         19.72916        12.94052        -2.13544
H         18.78577        12.91860        -2.41040
O          9.97787        10.00352        -1.92184
H          9.26327         9.47533        -2.33446
O         15.32665        25.99600        -1.79913
H         15.02625        25.21888        -2.33145
O         16.42078        11.81999        -2.26151
H         15.54910        11.82147        -2.72977
O          7.26894        21.12329        -2.62837
H          6.58411        21.76433        -2.94286
O          2.66674        12.38087        -1.61162
H          1.88156        12.67221        -2.12044
O         18.25294        27.61437         2.61501
H         18.99734        28.09624         3.03430
O          7.64052        17.01792         1.34084
H          6.89063        17.47108         1.78096
O          2.32946        21.50747        -1.72344
H          1.55270        22.06196        -1.96294
O         10.89516        10.47691         1.57829
H         11.61742        10.97850         2.01069
O         10.05630         5.67002        -1.70760
H          9.35009         5.14304        -2.13612
O         19.49379        18.28792         2.70341
H         19.34954        19.19468         3.05042
O          3.50218        16.32307        -2.05404
H          2.73121        15.76649        -2.29428
O         10.87098         6.20091         1.81876
H         11.58176         6.72100         2.24820
O         17.00387         4.35724        -2.48969
H         17.79798         4.82687        -2.82404
O          2.42318        22.72046         1.75901
H          3.27589        22.31541         2.03603
O          3.41502        12.48770         1.96829
H          4.09358        12.02517         2.50323
O         10.86431        23.49056         1.42178
H         10.64319        22.57576         1.70033
O         13.39801        16.19194         1.70350
H         14.18589        15.70481         2.02886
O         13.26732        27.44241         1.93702
H         12.45661        27.92420         2.20825
O          1.49676        27.33309         1.75023
H          2.26168        26.70678         1.77405
O          8.65875        29.58350        -2.23604
H          7.84507        29.17227        -2.59953
O          5.76079        23.43462        -2.57469
H          6.19092        24.18467        -3.03941
H          1.29768         2.33479         0.98872
H         -0.86301         3.55597         1.20611
H         -0.93177         6.02284         1.12085
H         -0.94641         7.87284         0.33521
H         -0.97479        10.29636         0.11206
H         -1.01707        12.26559         0.25035
H         -1.01530        14.67692        -0.01331
H         -1.00671        16.57954         0.39396
H         -0.98792        19.00375         0.54651
H         -0.84855        20.92125         0.99119
H         -0.92598        23.35532         0.81117
H         -1.06897        25.36675        -0.63791
H         -0.93019        27.74187        -0.01571
H          0.37541        29.78663         0.57455
H          3.73195         2.36685         0.71457
H          2.48253        31.03849         0.32346
H          6.17271         2.37349         0.42779
H          4.96606        30.98093         0.27619
H          8.60578         2.36944         0.37986
H          7.41468        31.02465        -0.01144
H         11.08893         2.35494         0.27112
H          9.93484        31.04338        -0.14670
H         13.53488         2.34752        -0.14040
H         12.32580        31.00995         0.25427
H         15.96816         2.35764        -0.60194
H         14.76527        30.99460         0.63387
H         18.46730         2.36803        -0.91443
H         17.19911        31.00203         0.74067
H         20.61008         3.58729        -0.79084
H         21.82286         5.77593        -0.98720
H         21.85775         8.23624        -0.87253
H         21.92910        10.11673        -0.15869
H         21.98193        12.53719        -0.29649
H         21.87113        14.55538        -0.37864
H         21.82615        16.93676         0.20372
H         21.91925        18.67465         1.23672
H         21.94530        21.05070         0.81847
H         21.93118        22.97331         0.94876
H         21.90424        25.39899         1.04154
H         21.86420        27.33931         0.61962
H         21.79966        29.80107         0.72975
H         19.65253        31.03547         0.79649
