         297
 CSIRO Nanostructure Databank - Neutral Graphene Oxide Data Set
C         30.34201        31.64546         1.29795
C         30.30013        32.87968         1.34656
C         30.23876        36.09882         0.48806
C         30.26327        37.30045         0.18264
C         30.41862        40.67422         0.66298
C         30.53753        41.88875         0.42893
C         32.66688        28.76480         0.54388
C         31.61455        29.39495         0.75902
C         32.64546        31.52621         0.78384
C         31.46544        30.79860         0.99244
C         32.72619        32.98954         1.11605
C         31.42407        33.82139         1.26973
C         32.64553        35.91293         0.29198
C         31.38145        35.24750         0.83585
C         32.68006        37.45997         0.11557
C         31.36105        38.25807         0.63854
C         32.73549        40.38527         0.17711
C         31.35978        39.65448         0.02240
C         32.78563        41.80969        -0.31500
C         31.69096        42.61934        -0.02400
C         33.07840        44.57689        -0.35636
C         31.99572        44.02130        -0.13571
C         35.36534        27.23186        -0.06661
C         35.19335        28.66568        -0.10352
C         33.89230        29.34305         0.00244
C         35.14973        31.61144         0.11763
C         33.84939        30.88516         0.18535
C         35.19764        32.95832         0.31410
C         34.00421        33.71442         0.79940
C         35.24423        35.91917         0.33052
C         33.93806        35.15671         0.35699
C         35.22988        37.39285         0.53102
C         33.90437        38.09854         0.82557
C         35.27417        40.11367        -0.21487
C         33.99391        39.60716         0.43677
C         35.31640        41.50902        -0.79799
C         34.06445        42.41387        -0.90098
C         35.47185        44.45752        -1.22514
C         34.39729        43.85659        -0.36753
C         35.74852        45.80444        -1.35556
C         37.69751        27.08385        -0.71433
C         36.34025        26.59354        -0.48480
C         37.67452        28.66313        -0.76414
C         36.36573        29.35089        -0.32300
C         37.69426        31.54411        -0.15918
C         36.37155        30.84391        -0.30374
C         37.66342        32.89133         0.56354
C         36.48089        33.75007         0.05485
C         37.79140        35.91185         0.42118
C         36.47988        35.12969         0.75569
C         37.76685        37.32429         1.04069
C         36.45918        38.15896         1.03338
C         37.89895        40.07280        -0.04436
C         36.57413        39.38816         0.10481
C         37.95436        41.48773        -0.60052
C         36.67633        42.17981        -1.02261
C         38.04810        44.46903        -1.10643
C         36.74667        43.68200        -1.31424
C         38.07084        45.99525        -1.21502
C         36.74389        46.57061        -1.54183
C         40.18683        24.27105        -0.10289
C         39.12385        24.89971        -0.08169
C         40.23741        27.02686         0.04802
C         38.94247        26.33122        -0.41375
C         40.25775        28.56046        -0.12349
C         38.90900        29.26483        -0.06161
C         40.21866        31.50461        -0.24844
C         38.94830        30.74487         0.08118
C         40.32619        32.89327         0.33506
C         39.03465        33.60489         0.64864
C         40.37035        35.83589         0.62583
C         39.06054        35.11762         0.80182
C         40.29358        37.36101         0.35370
C         39.07005        38.05862         1.01064
C         40.34962        40.23759         0.72741
C         38.97740        39.59973         0.92631
C         40.42674        41.64762         0.20707
C         39.22513        42.30832        -0.38752
C         40.38881        44.61985        -0.02949
C         39.07879        43.82880        -0.16617
C         40.40163        45.98248        -0.07528
C         39.23535        46.74896        -0.67810
C         40.28170        48.79815         0.04858
C         39.26907        48.18207        -0.31887
C         42.84378        24.33194        -0.36252
C         41.47726        24.78703        -0.59695
C         42.78572        27.10439        -0.61363
C         41.47174        26.33154        -0.56085
C         42.79227        28.60222        -0.79723
C         41.49583        29.32104        -0.53603
C         42.73299        31.56333        -0.84455
C         41.44500        30.81188        -0.78988
C         42.57780        33.08155        -0.92187
C         41.70145        33.60121         0.31112
C         42.97338        35.83165         0.41768
C         41.63142        35.10195         0.36431
C         42.80095        37.31233        -0.01316
C         41.65697        37.95747         0.80316
C         42.93545        40.22897         0.53429
C         41.64157        39.48086         0.78184
C         42.91999        41.72112         0.66119
C         41.56976        42.47479         0.81024
C         42.84021        44.60910         0.74269
C         41.69520        43.84324         0.09011
C         42.83173        46.10893         0.77548
C         41.68796        46.77555         0.02839
C         42.87628        48.89104         0.52595
C         41.47802        48.49211         0.81194
C         43.88926        24.99194        -0.34434
C         45.29992        27.13905        -0.45261
C         44.03524        26.44310         0.02200
C         45.27336        28.71651        -0.12088
C         44.02148        29.43004        -0.63255
C         45.24991        31.59232        -0.81531
C         43.95476        30.83755        -0.76925
C         45.20099        33.10600        -0.85354
C         43.91143        33.84905        -0.95631
C         45.25906        36.02062        -0.54713
C         43.89506        35.36101        -0.71402
C         45.29635        37.43408        -0.48173
C         44.07156        38.14485        -0.15063
C         45.20319        40.31765        -0.65480
C         44.06097        39.51721        -0.11553
C         45.26630        41.81442        -0.37342
C         44.10657        42.47791         0.22546
C         45.37416        44.67237         0.28776
C         44.15140        43.87170         0.64288
C         45.38622        46.08201         0.99627
C         44.12743        46.85401         0.99507
C         43.95121        48.29477         0.67748
C         47.46937        27.42909         0.56596
C         46.53544        26.63931         0.34947
C         47.74799        28.81368         0.41153
C         46.63839        29.36355        -0.50651
C         47.51295        31.67440         0.41885
C         46.55320        30.89907        -0.50345
C         47.67231        33.11698        -0.03504
C         46.49025        33.83845        -0.59431
C         47.69179        36.02064        -0.37667
C         46.47029        35.31947        -0.49180
C         47.73690        37.42125        -0.57013
C         46.52971        38.13850        -0.61578
C         47.76751        40.38033        -1.06485
C         46.45858        39.56479        -1.12033
C         47.74114        41.85013        -0.71086
C         46.59913        42.49190        -0.31700
C         47.90797        44.65162         0.27282
C         46.64253        43.79532         0.49636
C         47.76876        45.86787         0.84647
C         46.66357        46.43075         1.26673
C         49.89696        29.05704         1.66071
C         48.82204        29.52972         0.85457
C         49.76625        31.82947         1.66238
C         48.93598        31.04151         0.62021
C         50.03605        33.12414         0.85094
C         48.72363        33.96199         0.67624
C         49.99475        36.12377         0.60760
C         48.97933        35.25607        -0.12819
C         50.17120        37.51796         0.08481
C         49.09969        38.05748        -0.88248
C         50.36376        40.33360        -0.55628
C         49.07070        39.61350        -0.91575
C         50.32358        41.85296        -0.40623
C         49.04533        42.59639        -0.70956
C         50.33983        44.57243        -0.27244
C         48.95755        44.16582        -0.66547
C         50.94451        29.68716         2.00223
C         52.18230        31.97007         2.18917
C         51.14394        31.05894         2.05336
C         52.15607        33.22574         2.00827
C         51.18789        34.01736         1.34127
C         52.17225        36.34458         1.46895
C         51.15326        35.38642         1.22059
C         52.38113        37.53434         1.16025
C         51.61943        38.07098        -0.05541
C         52.58264        40.47529         0.44177
C         51.63166        39.57064        -0.22014
C         52.61567        41.71366         0.45075
C         51.40045        42.57680         0.54597
C         51.36094        44.00431         0.10564
O         40.42250        31.34611        -1.69117
O         35.12118        40.33768        -1.64599
O         37.08941        31.45668        -1.47729
O         33.66816        33.35680         2.17659
O         37.70978        43.90633        -2.38661
O         46.25235        31.27765        -1.86619
O         37.45309        39.09683        -1.01858
O         41.04935        40.04210         2.00106
O         33.59716        30.22111        -1.10731
O         38.51676        26.55015        -1.76582
O         47.58549        33.34621        -1.44608
O         42.92468        27.68524        -1.93729
O         41.27402        25.55786        -1.78548
O         43.19187        46.58492         2.11091
O         50.06057        42.34919        -1.74176
O         39.79220        35.50694         1.97879
O         40.29949        41.80081        -1.24010
O         43.26878        35.97208        -1.89770
O         44.84038        41.26410        -1.70930
O         43.32157        40.88339         1.81794
O         42.43690        37.10950        -1.42247
O         50.42128        32.56640        -0.44332
O         44.64426        33.51951        -2.16367
O         39.15675        46.44471        -2.09536
O         48.60676        40.08005        -2.21667
O         38.53920        37.53707         2.25413
O         51.38421        39.98183        -1.57308
O         38.76372        29.89553         1.25441
O         37.51031        41.48231        -1.97983
O         43.46156        44.06972         1.93105
O         46.30369        39.37747        -2.61385
O         41.15696        29.11269         0.88926
O         49.70519        31.26281        -0.59903
O         33.39285        40.39417         1.49598
O         31.50522        34.88338         2.23701
O         35.37933        36.82818        -0.80540
O         33.16996        35.24602        -0.89363
O         39.80513        32.92966         1.70005
O         49.60022        37.29862         1.39914
O         36.36715        35.00970         2.17346
H         36.72308        34.13110         2.46300
O         45.03100        38.76412        -2.86340
H         44.45710        39.53389        -3.10490
O         43.90154        26.57411         1.44298
H         44.64665        26.08448         1.85701
O         37.92394        36.10338        -1.00128
H         37.05740        36.42593        -1.36197
O         46.82913        31.71420         1.69023
H         46.58943        30.79945         1.96106
O         31.27648        38.39073         2.01583
H         31.31851        37.51834         2.45861
O         33.85279        42.60633        -2.31005
H         33.86765        41.72457        -2.74344
O         49.46906        37.61511        -2.20064
H         49.06344        38.23898        -2.84820
O         36.57061        34.02144        -1.34269
H         36.58472        33.16523        -1.83491
O         41.88948        37.57262         2.17085
H         41.42841        38.22132         2.74999
O         40.14133        37.65281        -1.03611
H         39.33841        37.17638        -1.37360
O         40.27992        26.78957         1.46825
H         40.81881        27.50033         1.88499
O         36.19975        38.60996         2.36516
H         37.07846        38.72972         2.80601
O         45.21996        28.90097         1.32040
H         44.52539        28.29326         1.68163
O         45.25037        44.99199        -1.09854
H         46.10968        45.33153        -1.43217
O         37.84734        28.95113        -2.15923
H         37.63067        29.89984        -2.32597
O         42.44529        33.10496         1.44750
H         41.91951        33.31314         2.25175
O         46.64530        43.33727         1.86367
H         46.64517        44.12078         2.45493
O         41.23525        48.41290         2.15526
H         42.03921        48.06034         2.60658
O         32.77424        37.73707        -1.27227
H         33.25949        36.99062        -1.69987
O         52.15780        37.47611        -1.21468
H         52.79099        38.08824        -1.64303
O         49.07192        32.02174         2.87719
H         49.66413        32.46626         3.51941
O         38.44380        43.92444         1.14656
H         39.11532        43.71170         1.83434
O         48.22552        34.36335         1.95489
H         47.88042        33.56473         2.42018
O         34.91619        43.72886         0.95805
H         34.99495        44.61875         1.36118
O         41.83090        33.46942        -2.07722
H         42.41136        33.36375        -2.86202
O         37.31923        32.55050         1.93291
H         38.14967        32.24223         2.37167
O         41.24516        42.70871         2.18462
H         41.86842        42.17945         2.73372
O         33.67936        37.93747         2.22495
H         34.37963        38.42836         2.71573
O         42.13632        47.02445        -1.27849
H         41.37043        47.14905        -1.87955
O         43.64078        35.64929         1.66376
H         43.08055        36.06021         2.36198
O         50.86596        42.48909         1.84634
H         51.48010        42.91240         2.48126
O         38.51150        40.10140         2.20137
H         39.25409        40.01312         2.84205
O         49.61079        34.90980        -1.36611
H         49.61717        35.70415        -1.95275
O         45.46285        26.87572        -1.79862
H         46.21255        27.42102        -2.14632
O         31.06412        39.59891        -1.34857
H         30.41131        38.88308        -1.50672
O         47.03379        28.95287        -1.82568
H         46.83821        29.70381        -2.44123
O         42.16315        43.62730        -1.25812
H         41.48915        43.10114        -1.75429
O         48.58237        44.57960        -1.97170
H         49.19658        44.14737        -2.60646
