         324
 CSIRO Nanostructure Databank - Neutral Graphene Oxide Data Set
C         30.84637        56.86639        -1.97605
C         30.83753        58.29603        -2.04445
C         29.76021        59.00072        -2.63748
C         30.80016        61.11441        -2.06810
C         29.75871        60.39071        -2.66428
C         33.24019        52.61692        -1.19550
C         33.18867        54.01098        -1.35658
C         31.99640        54.73106        -1.57314
C         33.18186        56.88454        -1.18745
C         31.98310        56.15102        -1.56791
C         33.04082        58.32823        -0.77835
C         31.91282        59.03843        -1.48650
C         32.93137        61.18480        -0.69115
C         31.87118        60.43823        -1.46300
C         35.47859        48.44879         0.35145
C         35.48278        49.85789         0.16594
C         34.37238        50.54205        -0.38079
C         35.58583        52.66947        -0.45379
C         34.40664        51.93778        -0.71287
C         35.70252        54.05745        -0.89132
C         34.44436        54.78866        -1.35325
C         35.64903        56.99534        -0.96616
C         34.40602        56.25427        -1.14969
C         35.58530        58.43861        -0.86782
C         34.33632        59.10421        -0.86623
C         35.44818        61.25775        -0.56094
C         34.28426        60.51149        -0.74882
C         37.83414        44.27194         1.35993
C         37.83574        45.67779         1.34873
C         36.62899        46.38165         1.05161
C         37.77188        48.55521         1.30609
C         36.58917        47.77210         0.89434
C         37.84189        49.97530         0.94367
C         36.67492        50.59702         0.50047
C         37.96669        52.69525         0.36815
C         36.60275        52.09169         0.49320
C         38.04363        54.12105         0.01148
C         36.86672        54.89872        -0.47426
C         38.09004        57.13461        -0.78782
C         36.89200        56.34320        -0.90636
C         38.02642        58.53396        -0.53686
C         36.77013        59.19530        -0.62903
C         37.89332        61.32338        -0.12176
C         36.71175        60.61568        -0.44309
C         40.20951        40.01061         1.03400
C         40.21815        41.39266         1.34294
C         39.01905        42.13121         1.39514
C         40.29253        44.23240         1.61936
C         39.03768        43.53906         1.47996
C         40.31000        45.67561         1.58777
C         39.08752        46.36658         1.49166
C         40.35836        48.56705         1.44336
C         39.09177        47.82835         1.59412
C         40.31831        49.98750         1.35518
C         39.08635        50.67323         1.14795
C         40.28944        52.93626         1.29841
C         39.09023        52.09573         0.87960
C         40.48561        54.14293         0.40023
C         39.41091        54.53326        -0.31676
C         40.54366        57.16527        -0.31393
C         39.39926        56.58430        -0.85798
C         40.44682        58.55493         0.02457
C         39.21448        59.23978        -0.17048
C         40.29661        61.36123         0.45314
C         39.13462        60.66272         0.05715
C         42.40728        35.95033        -0.65821
C         42.47225        37.23723        -0.09113
C         41.34286        37.94999         0.32117
C         42.65610        39.97412         0.94573
C         41.40677        39.30082         0.79446
C         42.70403        41.34400         1.35756
C         41.46622        42.07628         1.54466
C         42.74513        44.17550         2.06373
C         41.47996        43.47292         1.74251
C         42.79648        45.67071         1.90189
C         41.54902        46.41958         1.57990
C         42.88817        48.54816         1.26156
C         41.56990        47.82026         1.43918
C         42.84459        50.03596         1.56823
C         41.57314        50.75227         1.42180
C         42.76624        52.94525         1.59768
C         41.56197        52.12999         1.35268
C         42.89852        54.30169         1.04658
C         41.77118        54.86894         0.27268
C         43.06815        57.17674         0.17444
C         41.79506        56.37328        -0.10578
C         42.84342        58.60200         0.65169
C         41.61138        59.27446         0.45137
C         42.71216        61.41787         0.96710
C         41.53196        60.69690         0.65395
C         44.61608        33.39712        -2.29162
C         43.49159        33.99264        -1.70391
C         44.82998        35.98158        -1.18318
C         43.56635        35.28858        -1.14977
C         44.95960        37.27238        -0.61083
C         43.81109        37.82747         0.14847
C         45.23864        39.95368         0.66342
C         43.90304        39.20938         0.74115
C         45.05909        41.46584         0.68286
C         43.92922        42.02555         1.44660
C         45.34029        44.12126         2.00159
C         44.02098        43.32490         2.21208
C         45.32828        45.63227         2.32571
C         44.14346        46.33157         1.60923
C         45.36503        48.53394         1.82290
C         44.03804        47.82751         2.01701
C         45.32962        50.02018         2.11003
C         44.02126        50.71087         1.77677
C         45.31653        52.91594         1.71744
C         44.06130        52.18490         1.92138
C         45.30666        54.32440         1.60624
C         44.08327        55.01259         1.22482
C         45.27295        57.14448         1.31909
C         44.13957        56.43388         0.96748
C         45.19533        58.61368         1.44086
C         43.96334        59.32401         1.06923
C         45.17331        61.48908         1.22927
C         43.94036        60.75907         1.15136
C         45.81971        34.08351        -2.38992
C         47.12817        36.16162        -2.02749
C         45.94539        35.40036        -1.86188
C         47.20735        37.48432        -1.57388
C         46.11555        38.03028        -0.83252
C         47.39838        40.27208        -0.73652
C         46.14610        39.46882        -0.47401
C         47.51917        41.57638        -0.00413
C         46.27619        42.28126         0.42073
C         47.64396        44.35581         0.83655
C         46.46464        43.54173         1.21079
C         47.66190        45.70028         1.00957
C         46.69412        46.36379         1.98023
C         47.79036        48.54785         1.40427
C         46.54372        47.85115         1.71722
C         47.80516        50.02617         1.54512
C         46.54488        50.76996         1.62550
C         47.74015        52.93328         1.36138
C         46.53670        52.17805         1.56764
C         47.75949        54.31563         1.51842
C         46.54198        55.05197         1.62568
C         47.73524        57.24456         1.55320
C         46.53712        56.49150         1.58320
C         47.75027        58.67345         1.40109
C         46.47667        59.40769         1.54123
C         47.64672        61.53383         1.07066
C         46.42307        60.85813         1.26020
C         48.37368        38.29407        -1.85655
C         49.70537        40.34984        -1.88676
C         48.54241        39.58803        -1.42863
C         50.25208        41.35536        -1.13779
C         48.70426        42.15455         0.30089
C         49.82381        44.33723        -0.39465
C         48.95393        43.59239         0.64928
C         49.97695        45.77670         0.11510
C         48.89148        46.43578         0.66500
C         49.98917        48.64667         0.24863
C         48.89007        47.88221         0.89376
C         50.12080        50.08390         0.41762
C         49.02967        50.78074         1.09712
C         50.28305        52.87869         0.98746
C         48.91664        52.24496         0.73252
C         50.23208        54.38248         0.88536
C         49.05733        55.03410         1.48947
C         50.22068        57.25785         1.02040
C         49.04022        56.54504         1.54286
C         50.26773        58.73241         1.30068
C         48.91683        59.40235         1.18843
C         50.08800        61.54563         0.78870
C         48.88352        60.84147         1.03416
C         51.17769        42.40669        -1.46711
C         52.27440        44.49890        -1.13297
C         51.12890        43.68428        -0.90265
C         52.40813        45.82121        -0.72365
C         51.32478        46.46843         0.10408
C         52.42154        48.70367        -0.54794
C         51.19879        47.92422        -0.27531
C         52.37374        50.07729        -0.62540
C         51.21419        50.80843        -0.12578
C         52.33791        53.02406        -0.50222
C         51.26911        52.21317         0.04860
C         52.46110        54.44253        -0.12583
C         51.31442        55.11557         0.44598
C         52.46791        57.30108         0.02523
C         51.31726        56.57544         0.51846
C         52.42562        58.73356         0.02177
C         51.35424        59.44595         0.55269
C         52.47800        61.60467         0.14589
C         51.30975        60.88599         0.49735
C         53.58987        46.56233        -0.95237
C         54.86748        48.68607        -0.87179
C         53.65825        47.96708        -0.79505
C         54.88112        50.10426        -0.91494
C         53.56885        50.77985        -1.25356
C         54.84354        53.01475        -0.92617
C         53.58285        52.29447        -1.06742
C         54.83710        54.42249        -0.78264
C         53.61764        55.14162        -0.45884
C         54.82963        57.27155        -0.72308
C         53.63702        56.59090        -0.39303
C         54.80562        58.72833        -0.93123
C         53.52894        59.49310        -0.59160
C         54.86544        61.58611        -0.51014
C         53.64154        60.94087        -0.30926
C         56.05423        50.84417        -0.86753
C         57.28739        52.99194        -0.88530
C         56.07911        52.28372        -0.89933
C         57.30987        54.41489        -0.90407
C         56.06864        55.13055        -0.82453
C         57.29133        57.25716        -1.00059
C         56.06929        56.56258        -0.84116
C         57.29142        58.71722        -1.17478
C         56.06197        59.47775        -0.95614
C         57.34144        61.55723        -0.64863
C         56.08340        60.87431        -0.78423
C         58.52169        55.14002        -0.93268
C         59.76801        57.27187        -0.82019
C         58.53674        56.55363        -0.96734
C         59.82132        58.66346        -0.69288
C         58.62751        59.46529        -1.01875
C         59.77350        61.49397        -0.19300
C         58.56313        60.88466        -0.62425
C         60.97413        59.36058        -0.25436
C         60.94154        60.74479        -0.04221
O         49.33227        55.74826         2.75421
O         48.86216        50.49893         2.52645
O         49.86877        41.38889         0.22284
O         43.23988        52.76759         2.97669
O         53.83291        59.13638        -1.97243
O         38.21928        48.31758         2.67733
O         46.23157        40.31176        -1.65260
O         45.72625        59.04839         2.74864
O         52.59957        52.88711        -1.96028
O         46.42112        43.39303         2.68103
O         44.04394        38.01630         1.60212
O         58.07200        59.18066        -2.33436
O         42.09064        55.32846        -1.08957
O         50.11627        48.21674        -1.19551
O         39.52807        55.32719        -1.46307
O         45.18925        42.27029        -0.55695
O         42.65080        45.06799         3.23118
O         37.21002        54.91116         0.97689
O         43.25923        48.47775        -0.20284
O         35.42199        54.29193        -2.31877
O         45.97099        39.67717         1.88427
H         45.58237        38.85651         2.27288
O         50.71910        52.59752         2.34617
H         50.07165        52.00085         2.78786
O         50.64260        58.83293         2.72980
H         50.08730        58.19053         3.22425
O         45.38211        50.08468         3.57647
H         44.66444        49.48645         3.90346
O         32.68429        58.31536         0.64855
H         32.48688        59.25309         0.89729
O         42.09396        48.85150        -0.97542
H         42.20898        49.82506        -1.10162
O         48.98372        44.41810        -1.57551
H         49.39705        45.04108        -2.20933
O         43.65758        47.91725         3.40817
H         44.06395        47.13951         3.87717
O         51.79100        46.45498         1.48918
H         51.77947        45.52464         1.80037
O         44.43758        46.17268         0.21156
H         43.88647        46.80633        -0.31193
O         43.69213        57.37125        -1.14055
H         43.50878        56.55181        -1.65675
O         36.13200        52.49578         1.84190
H         36.37002        53.45103         1.94269
O         44.02566        42.91428         3.60203
H         43.90525        43.73602         4.13235
O         45.12594        45.75096         3.74551
H         46.02538        45.91257         4.13461
O         47.48190        46.31118         3.21757
H         47.97858        45.46339         3.22615
O         32.50863        61.19023         0.69667
H         33.22684        61.59174         1.22887
O         48.69548        52.32485        -0.70579
H         47.78977        52.00535        -0.89963
O         40.01922        53.39975         2.64857
H         40.00905        52.62127         3.24426
O         49.65055        43.66370         1.91855
H         49.20704        43.05164         2.54354
O         53.42481        50.55963        -2.69086
H         52.77782        51.23055        -3.00994
H         29.96076        56.31367        -2.32374
H         28.92510        58.43736        -3.07795
H         30.77211        62.21347        -2.05678
H         28.92250        60.92831        -3.13266
H         32.30475        52.04298        -1.27854
H         31.05483        54.18695        -1.74107
H         33.00897        62.24951        -1.04991
H         34.59000        47.86969         0.05883
H         33.45732        49.97340        -0.60319
H         35.38537        62.35173        -0.45423
H         36.88658        43.72961         1.22804
H         35.72775        45.79126         0.82854
H         37.84065        62.41162         0.03210
H         39.24513        39.49975         0.89754
H         38.05717        41.61213         1.27317
H         40.24251        62.44866         0.61115
H         41.42962        35.45421        -0.75306
H         40.34989        37.49111         0.20125
H         42.66988        62.51557         1.02590
H         44.53271        32.38318        -2.70777
H         42.53456        33.45198        -1.68124
H         45.13218        62.58416         1.12502
H         46.68260        33.62082        -2.88985
H         47.97663        35.72382        -2.57424
H         47.64132        62.62269         0.91068
H         49.17826        37.82244        -2.44122
H         50.08116        40.15092        -2.90186
H         50.05034        62.64276         0.71209
H         52.02006        42.17634        -2.14098
H         53.11983        44.03611        -1.66753
H         52.48503        62.70079         0.24177
H         54.47673        46.03169        -1.33238
H         55.82245        48.13855        -0.87443
H         54.92950        62.66949        -0.32753
H         57.01490        50.31628        -0.76334
H         58.23913        52.44054        -0.88972
H         57.32153        62.62953        -0.40123
H         59.47626        54.59345        -0.91871
H         60.68840        56.68892        -0.66332
H         59.77488        62.56565         0.05257
H         61.89774        58.79884        -0.05408
H         61.85573        61.24959         0.30101
