         720
 CSIRO Nanostructure Databank - Neutral Graphene Oxide Data Set
C         22.92784        27.47172         0.72822
C         22.87371        28.78766         0.41856
C         22.81390        31.68970        -0.62898
C         22.81487        32.97318        -1.02506
C         22.90877        35.95132        -1.22640
C         22.91037        37.33989        -1.15235
C         22.98376        40.21911        -0.48592
C         23.01545        41.58732        -0.13138
C         23.13257        44.46995         0.55933
C         23.12420        45.89082         0.62190
C         25.33197        24.61699         1.02193
C         24.14855        25.33638         0.97973
C         25.39917        27.36041         0.43527
C         24.16452        26.71454         0.67908
C         25.38100        28.73908        -0.09550
C         24.04682        29.46631        -0.15909
C         25.37885        31.61626        -0.55946
C         24.06402        30.96735        -0.26777
C         25.38067        32.98569        -1.17623
C         24.07027        33.71391        -1.33164
C         25.34714        35.86452        -1.22432
C         24.11113        35.19943        -1.26913
C         25.36718        37.32591        -1.05166
C         24.10376        38.07895        -1.05801
C         25.33798        40.28165        -1.20037
C         24.10599        39.51140        -0.92204
C         25.38887        41.72486        -0.74447
C         24.18553        42.33729        -0.13908
C         25.54642        44.44052         0.09036
C         24.27457        43.73137         0.25383
C         25.59368        45.88992         0.54843
C         24.28183        46.62629         0.48677
C         25.44067        48.79130         0.31771
C         24.30765        48.06674         0.52604
C         27.87718        23.04757         0.92027
C         27.83261        24.51013         1.06252
C         26.57280        25.26100         0.85200
C         27.89831        27.32362         0.33854
C         26.62165        26.65286         0.58840
C         27.91613        28.83760         0.31690
C         26.64930        29.50825        -0.17862
C         27.90572        31.54609        -0.83793
C         26.64128        30.81905        -0.54471
C         27.90310        33.01874        -1.13093
C         26.62790        33.77551        -1.10961
C         27.86873        35.84164        -1.64926
C         26.60414        35.14747        -1.23706
C         27.88370        37.33727        -1.80783
C         26.67784        38.07845        -1.33255
C         27.94432        40.28287        -1.47624
C         26.62015        39.55614        -1.54479
C         27.98076        41.62497        -0.78367
C         26.70544        42.28880        -0.23841
C         27.90073        44.60266        -0.78603
C         26.70288        43.80978        -0.28715
C         28.08380        45.94059        -0.03336
C         26.74666        46.65480        -0.07363
C         27.99079        48.88248        -0.18630
C         26.69538        48.14972        -0.13155
C         28.02345        50.26255         0.04903
C         30.33985        23.05110         0.83277
C         29.05545        22.38050         0.85777
C         30.38951        24.44926         0.69436
C         29.15238        25.24723         0.83266
C         30.36934        27.22702        -0.23581
C         29.08783        26.64023         0.34159
C         30.36046        28.74227        -0.27817
C         29.19474        29.44486        -0.22226
C         30.42391        31.50095        -1.07402
C         29.20855        30.96482        -0.28705
C         30.46363        33.02426        -1.02114
C         29.18220        33.80767        -0.85080
C         30.53064        35.86598        -1.86844
C         29.18857        35.12436        -1.62927
C         30.49528        37.36274        -1.57841
C         29.22960        38.08598        -1.73713
C         30.42568        40.21293        -1.38278
C         29.21933        39.52732        -1.46832
C         30.37653        41.70806        -1.69242
C         29.25409        42.39279        -0.91332
C         30.36088        44.61201        -1.01163
C         29.22887        43.87150        -0.81854
C         30.37502        46.07215        -0.95015
C         29.23705        46.75306        -0.61070
C         30.40092        48.95164        -0.68366
C         29.20061        48.20961        -0.51717
C         30.43579        50.32108        -0.31592
C         29.22472        50.95631         0.03096
C         32.83487        20.18368         1.12300
C         31.62265        20.90080         1.05961
C         32.82385        23.04545         0.96585
C         31.56200        22.29055         0.93312
C         32.82419        24.45624         0.53768
C         31.63430        25.15050         0.49878
C         32.87725        27.34829         0.09033
C         31.59046        26.67110         0.52504
C         32.88965        28.67733        -0.20961
C         31.65123        29.44507        -0.38088
C         32.93464        31.55968        -0.55557
C         31.67623        30.79532        -0.60751
C         32.91648        33.03341        -0.74674
C         31.64129        33.74759        -1.01742
C         32.92153        35.88371        -1.10202
C         31.69886        35.17072        -1.19908
C         32.95350        37.30646        -1.35133
C         31.69146        38.06664        -1.38899
C         32.80085        40.30804        -0.79285
C         31.65860        39.51161        -1.22433
C         32.84456        41.67464        -0.95405
C         31.70062        42.45243        -1.47946
C         32.88382        44.69797        -0.88018
C         31.65918        43.94028        -1.24466
C         32.92472        46.07483        -1.00205
C         31.62900        46.76321        -1.45578
C         32.94706        49.02246        -1.08737
C         31.63508        48.28534        -1.20266
C         32.94641        50.49658        -0.75333
C         31.68687        51.07925        -0.24503
C         32.94752        53.03920         0.50553
C         31.72631        52.34448         0.29377
C         35.44762        18.68660         1.19567
C         35.33340        20.08718         1.17624
C         34.09053        20.79975         1.08693
C         35.40100        22.91446         0.54266
C         34.12500        22.28553         1.06992
C         35.40157        24.42806         0.50827
C         34.12003        25.09840         0.21833
C         35.43965        27.28509         0.15794
C         34.14683        26.58212        -0.02614
C         35.45969        28.70718        -0.08080
C         34.19285        29.32935        -0.52533
C         35.48249        31.53685        -0.61343
C         34.20906        30.81226        -0.76431
C         35.48329        32.98284        -0.94000
C         34.18613        33.72858        -1.09594
C         35.39557        35.88210        -0.83771
C         34.17208        35.19395        -0.97632
C         35.41456        37.30634        -0.94915
C         34.22599        37.89452        -1.53209
C         35.30002        40.21796        -0.21084
C         33.92088        39.68849         0.01789
C         35.32685        41.67361        -0.65867
C         34.01494        42.44106        -0.37683
C         35.40970        44.62221        -0.83259
C         34.10188        43.87923        -0.89118
C         35.39069        46.09141        -0.70739
C         34.17905        46.80579        -0.89422
C         35.41150        48.95078        -0.71407
C         34.21517        48.25921        -0.89662
C         35.52457        50.39819        -0.64436
C         34.26619        51.24670        -0.58876
C         35.35734        53.34695         0.52429
C         34.18475        52.53548         0.17716
C         35.40497        54.31059         1.56614
C         37.87853        18.74612         1.62825
C         36.65828        18.04124         1.46896
C         37.85748        20.15594         1.55003
C         36.56081        20.85834         1.49723
C         37.85054        23.15853         1.41097
C         36.56447        22.34935         1.34265
C         37.88668        24.33218         0.40904
C         36.58815        25.12954         0.47834
C         37.87014        27.32983         0.76017
C         36.60503        26.57694         0.39993
C         37.90311        28.79137         0.32805
C         36.64660        29.44005        -0.05039
C         37.96992        31.56356        -0.52739
C         36.64495        30.85858        -0.35831
C         37.88853        33.07253        -0.38650
C         36.69066        33.76178        -0.62982
C         37.82508        35.92342        -0.35954
C         36.63499        35.17790        -0.60574
C         37.76531        37.33636        -0.22655
C         36.55294        38.03918        -0.45805
C         37.72259        40.16262         0.35837
C         36.47304        39.48301        -0.21921
C         37.73319        41.68305         0.21294
C         36.50315        42.44995        -0.12273
C         37.80057        44.57369        -0.23846
C         36.61665        43.88667        -0.45460
C         37.83694        46.01133        -0.32674
C         36.63286        46.74140        -0.48279
C         38.01083        48.92127        -0.52283
C         36.68799        48.20480        -0.69523
C         38.18554        50.45451        -0.70400
C         36.74766        51.02578        -0.78900
C         37.71435        53.84746         0.12469
C         36.53322        53.20970        -0.21866
C         37.78340        54.76352         1.17863
C         36.57002        55.02307         1.85866
C         40.45429        16.13361         2.57736
C         39.22492        16.73209         2.31731
C         40.37164        18.76274         1.63775
C         39.15803        18.06348         1.85823
C         40.31270        20.15694         1.16587
C         39.05741        20.90400         1.37594
C         40.30892        23.01642         1.18198
C         39.08465        22.29537         1.26202
C         40.23982        24.47481         1.13074
C         39.14325        25.14070         0.67930
C         40.32766        27.35003         0.91802
C         39.15881        26.61407         0.30145
C         40.36745        28.88732         0.96834
C         39.07215        29.49667         0.43866
C         40.36602        31.67182         0.03358
C         39.05052        31.01324         0.40406
C         40.34435        33.07452        -0.17639
C         39.08654        33.79317        -0.22223
C         40.31271        35.92497        -0.22645
C         39.07799        35.21736        -0.23103
C         40.31471        37.34307        -0.16581
C         39.03257        38.00408         0.29115
C         40.22061        40.15852        -0.12427
C         39.04268        39.48981         0.05499
C         40.24554        41.62348        -0.30445
C         38.99020        42.39101        -0.15294
C         40.22453        44.51177         0.19867
C         39.02542        43.85880         0.00881
C         40.24837        45.94866         0.25946
C         39.09040        46.65717        -0.08183
C         40.12474        48.74987         0.99402
C         39.02038        48.10177         0.21390
C         39.99958        50.26528         1.29979
C         39.22691        51.10532         0.26048
C         40.29872        53.14539         1.30379
C         39.45191        52.47925         0.35433
C         40.28622        54.59184         1.48008
C         39.08720        55.37653         1.46385
C         40.35901        57.43112         1.76008
C         39.14346        56.76779         1.67040
C         42.93804        16.20991         2.68131
C         41.66013        16.82654         2.36559
C         42.87508        18.88032         1.63153
C         41.62728        18.15437         1.86770
C         42.87291        20.20663         1.29513
C         41.61054        20.93152         1.03957
C         42.79176        23.17066         1.06356
C         41.56249        22.39845         1.15792
C         42.75452        24.56906         1.15906
C         41.44582        25.16824         1.69095
C         43.19859        27.73694         1.22424
C         41.28487        26.64425         1.54559
C         42.99998        29.01984         0.61260
C         41.59087        29.45644         0.17162
C         42.75510        31.64209        -0.43410
C         41.57356        30.96323        -0.03877
C         42.76399        33.06871        -0.58784
C         41.54693        33.78535        -0.39572
C         42.76679        35.91022        -0.56019
C         41.55841        35.21909        -0.40987
C         42.84192        37.37002        -0.20111
C         41.50570        38.06363        -0.27073
C         42.69896        40.21724        -0.46760
C         41.50687        39.48838        -0.26535
C         42.71598        41.66060        -0.31379
C         41.51881        42.33267        -0.12076
C         42.78987        44.47671         0.35885
C         41.47358        43.72467         0.32694
C         42.74058        45.95839         0.44934
C         41.47058        46.65618         0.63012
C         42.64788        48.71108         1.35715
C         41.41117        48.00436         0.99431
C         42.67504        50.17687         1.45453
C         41.37859        50.88119         1.67532
C         42.75880        53.03951         1.99064
C         41.43002        52.36060         1.84181
C         42.77554        54.55123         1.95673
C         41.50798        55.27732         1.74302
C         42.84500        57.35140         1.74285
C         41.56360        56.68919         1.76468
C         44.11069        16.83253         2.45330
C         45.24060        19.12500         2.40744
C         44.21324        18.16077         1.74593
C         45.33277        20.40365         1.63418
C         44.13986        20.91790         0.87015
C         45.22499        23.13833         0.76203
C         44.05023        22.44839         0.92098
C         45.19789        24.54557         0.36617
C         43.91442        25.35019         0.67089
C         45.37358        27.41414         0.24754
C         44.12845        26.82192         0.75207
C         45.38417        28.92837        -0.03063
C         44.08794        29.61183        -0.01370
C         45.16966        31.59334        -0.99019
C         44.01427        30.94193        -0.56663
C         45.11281        33.00997        -1.49770
C         43.94483        33.77094        -0.92165
C         45.14140        35.91917        -1.22089
C         43.97424        35.20264        -0.89166
C         45.05460        37.38415        -1.57736
C         43.94662        38.14386        -0.88259
C         45.04415        40.31689        -1.44664
C         43.90677        39.51796        -0.87754
C         45.03111        41.85776        -1.36517
C         43.93870        42.43518        -0.47362
C         45.08934        44.64927        -0.73568
C         43.96044        43.78538        -0.21203
C         45.17690        46.00273        -0.02714
C         43.94127        46.63734         0.41994
C         45.14411        48.83062         0.80168
C         43.98002        47.99097         0.99330
C         45.14422        50.16123         1.18116
C         43.89792        50.86315         1.46423
C         45.19541        53.00558         1.63047
C         43.98058        52.29810         1.66302
C         45.23645        54.45438         1.71062
C         44.05691        55.22831         1.72162
C         44.02420        56.65730         1.64808
C         47.75026        19.15065         2.29718
C         46.59615        18.50742         2.64889
C         47.77512        20.48231         1.78285
C         46.50756        21.27811         1.86992
C         47.74093        23.35384         1.11786
C         46.55037        22.41328         0.84184
C         47.72317        24.45538         0.06677
C         46.46977        25.24122         0.06212
C         47.64953        27.21353        -0.90036
C         46.49800        26.57321        -0.20678
C         47.62687        28.68663        -1.17758
C         46.47720        29.52965        -0.79694
C         47.63180        31.62626        -1.37074
C         46.42345        30.89152        -1.11189
C         47.61506        33.06453        -1.27237
C         46.41384        33.75023        -1.32990
C         47.62893        35.98509        -1.28661
C         46.38610        35.21543        -1.68865
C         47.58245        37.42259        -1.33576
C         46.37893        38.11774        -1.48110
C         47.63466        40.36230        -1.96195
C         46.33325        39.57887        -1.74275
C         47.63805        41.78030        -1.33044
C         46.39274        42.51016        -1.09467
C         47.65400        44.65584        -0.91215
C         46.39811        43.86640        -0.83761
C         47.62771        46.08863        -0.43167
C         46.34330        46.71381        -0.01457
C         47.55477        48.68032         1.02957
C         46.37744        48.22735         0.18144
C         47.62033        50.14763         1.28752
C         46.41168        50.87989         1.27746
C         47.68937        52.94784         1.66446
C         46.44114        52.27997         1.50711
C         47.68615        54.37947         1.77460
C         46.52250        55.09234         1.74932
C         50.19328        20.40897         1.15071
C         48.98292        21.13159         1.31627
C         50.22090        23.16750         0.66279
C         49.02485        22.53644         1.05382
C         50.19557        24.67391         0.46365
C         48.98739        25.11012        -0.34112
C         50.20779        27.35708        -0.66751
C         49.00704        26.47740        -1.03360
C         50.17214        28.70994        -1.09221
C         48.93120        29.35671        -1.48795
C         50.15000        31.66498        -1.34864
C         48.88948        30.92782        -1.59970
C         50.07255        33.11368        -1.19703
C         48.87242        33.80287        -1.15497
C         50.03713        35.97950        -0.80934
C         48.84364        35.26748        -1.04479
C         50.09905        37.39016        -1.25440
C         48.84137        38.18421        -1.35795
C         50.15453        40.27040        -1.79093
C         48.87582        39.52940        -1.62552
C         50.05514        41.77066        -1.82127
C         48.85148        42.43027        -1.24561
C         50.31559        44.55671        -0.60613
C         48.96663        43.90482        -1.02257
C         50.16432        45.90788         0.10642
C         48.89989        46.68207         0.10193
C         50.06175        48.59419         1.25783
C         48.80069        47.86005         1.03954
C         50.05039        49.96535         1.84023
C         48.84288        50.78868         1.57596
C         50.18080        52.81791         2.01762
C         48.89668        52.19080         1.75476
C         51.36433        21.03770         0.74902
C         52.64664        23.07239        -0.10565
C         51.41419        22.42557         0.51422
C         52.64270        24.58337        -0.00507
C         51.46832        25.30173        -0.04166
C         52.70304        27.49600        -0.21837
C         51.41302        26.72144        -0.31978
C         52.69265        28.85764        -0.87985
C         51.43083        29.47529        -1.43770
C         52.60572        31.71825        -1.05222
C         51.32718        30.97512        -1.17752
C         52.59239        33.18324        -1.45534
C         51.33840        33.80918        -0.87757
C         52.63313        36.01578        -0.34483
C         51.30575        35.27588        -0.54405
C         52.67928        37.42713        -0.88072
C         51.43270        38.09780        -1.28883
C         52.66760        40.30493        -0.88156
C         51.46693        39.60014        -1.44474
C         52.65351        41.63294        -0.37595
C         51.39506        42.22573         0.16857
C         52.58237        44.44698         0.56081
C         51.21695        43.74787         0.37011
C         52.60997        45.94704         0.68056
C         51.30178        46.57880         0.51642
C         52.97528        48.88909         1.58346
C         51.16671        48.01602         0.72218
C         52.62922        49.90741         2.47997
C         51.31417        50.64172         2.34495
C         51.31082        52.11601         2.28181
C         55.14996        23.11005         0.18699
C         53.97834        22.46198         0.28361
C         55.22989        24.57266        -0.06771
C         53.92905        25.30571        -0.11607
C         55.19195        27.37507        -0.68050
C         53.87014        26.66116        -0.78647
C         55.16457        28.85671        -0.69902
C         53.87293        29.51318        -1.00593
C         55.07062        31.73777        -1.78012
C         53.90076        30.99328        -1.13913
C         55.10891        33.15546        -1.25622
C         53.89939        33.86436        -1.05623
C         55.13558        35.97288        -0.51409
C         53.87835        35.21847        -0.69727
C         55.13438        37.41873        -0.74719
C         53.87657        38.11800        -0.90808
C         55.11176        40.24703        -0.63414
C         53.88398        39.57941        -0.88895
C         55.09417        41.62061        -0.30357
C         53.87397        42.29639        -0.10780
C         55.21253        44.42160         0.62089
C         53.86749        43.67922         0.46631
C         55.09683        45.97182         0.52795
C         53.79826        46.56198         1.07926
C         54.67027        48.02116         2.99168
C         53.88499        47.84335         1.82361
C         54.43573        49.09271         3.87118
C         53.39075        49.99494         3.65692
C         57.57946        24.55833        -0.98124
C         56.41523        25.23446        -0.68846
C         57.52415        27.39693        -1.52141
C         56.35897        26.67873        -0.85708
C         57.68797        28.84610        -1.16793
C         56.42643        29.61699        -0.91522
C         57.67509        31.67855        -1.49324
C         56.40962        30.88501        -1.76388
C         57.66395        33.07819        -1.38382
C         56.42777        33.70248        -0.77629
C         57.63264        35.98589        -1.09331
C         56.47548        35.22018        -0.64325
C         57.60882        37.38274        -1.00948
C         56.35750        38.09517        -0.81702
C         57.58514        40.21678        -0.87617
C         56.37133        39.53294        -0.77323
C         57.64390        41.65199        -0.55994
C         56.37484        42.34101        -0.13411
C         57.41474        44.44860        -0.74118
C         56.30368        43.81167        -0.25508
C         57.55707        46.33291         0.31434
C         56.40890        46.54412         1.09848
C         57.99043        47.12731         2.88949
C         56.67321        46.93096         2.42708
C         58.77170        25.24494        -1.37711
C         60.02195        27.34128        -1.77100
C         58.80552        26.61272        -1.52540
C         60.04176        28.70677        -1.78613
C         58.86083        29.49481        -1.47961
C         60.09444        31.70206        -1.55492
C         58.89864        30.96897        -1.51158
C         60.06673        33.09378        -1.65759
C         58.86443        33.80439        -1.52988
C         60.07230        36.05226        -1.55432
C         58.79072        35.29716        -1.78413
C         60.06437        37.38672        -1.35215
C         58.82909        38.13339        -1.20998
C         60.00566        40.34100        -1.35029
C         58.81919        39.53894        -1.14793
C         60.00345        41.71073        -1.29250
C         58.81851        42.45061        -0.97179
C         59.87655        44.73381        -0.86372
C         58.71714        43.84399        -0.93986
C         59.96188        45.84261        -0.07166
C         58.88810        46.39189         0.76596
C         59.09273        46.85130         2.08155
O         32.25756        48.90385        -2.38527
O         42.29660        27.34426         2.21673
O         28.47993        37.76638        -3.03237
O         41.25699        51.47861         3.02682
O         37.64815        48.40335        -1.83546
O         45.88149        28.39664         1.25034
O         52.26144        48.82175         0.38360
O         47.20988        27.70945        -2.21388
O         45.35356        39.89929        -2.83744
O         50.90034        37.45184        -2.50590
O         34.89886        33.23948        -2.28109
O         39.46137        42.02402        -1.51160
O         36.64142        52.32317        -1.29382
O         48.36664        44.56295        -2.19107
O         27.95852        32.04099        -2.22433
O         53.42479        31.53934         0.15076
O         24.80035        31.63972         0.81216
O         48.37002        24.08694        -1.19871
O         40.91251        20.40174        -0.15865
O         24.74449        33.10684        -2.49448
O         51.28706        34.23208         0.51756
O         38.99391        48.12190         1.68761
O         57.38891        45.83467        -0.98588
O         57.29251        41.84316         0.88710
O         47.85354        47.77812         2.14748
O         28.97538        41.63404         0.31237
O         53.16285        43.77788         1.75957
O         43.45356        48.02919         2.36186
O         27.21531        40.12054        -2.73586
O         33.67469        38.93535         0.95458
O         44.22944        24.86540        -0.69183
O         24.59317        28.81977        -1.34965
O         34.85202        44.10528        -2.13240
O         55.66946        47.13461         3.37730
O         26.31754        37.74822         0.03411
O         42.81137        53.79846         3.24029
O         38.85052        53.38250        -0.55703
O         48.43545        46.98974        -1.27451
O         28.58726        25.06851         2.18668
O         54.71880        25.31571         1.11949
O         50.36054        50.04076         3.28900
O         33.58240        22.91303         2.25946
O         50.54337        41.47477         0.64335
O         56.54894        30.31930        -3.07202
O         55.89359        29.53795         0.43058
O         36.25386        21.79545         2.64701
O         33.53465        51.28564        -1.84794
O         32.98944        32.46163         0.61815
O         42.22663        43.89763         1.58279
O         25.18285        41.41071        -2.13951
O         50.91559        42.42712        -2.39350
O         55.95254        35.62028         0.66673
O         36.93196        42.27365         1.28575
O         28.39243        35.12401        -2.83506
O         34.21342        29.88510        -1.89135
O         31.92361        43.36644        -2.60237
O         34.12233        25.65465        -1.16495
O         51.12157        39.89058        -2.83233
O         48.93969        30.04784        -2.77843
O         26.45963        47.28918        -1.33056
O         52.75881        36.21882         1.10175
H         52.47772        35.37356         1.52619
O         25.89115        45.79775         1.99391
H         25.20886        45.21835         2.39697
O         44.69165        19.47252         3.71901
H         45.08420        20.33795         3.97915
O         44.68480        37.35264        -3.01469
H         44.74416        38.29293        -3.32645
O         31.36291        27.03534         1.91804
H         31.91872        26.46616         2.49063
O         43.19949        37.38786         1.23989
H         42.41042        37.08688         1.74107
O         46.33149        35.22340        -3.17720
H         45.85006        36.05229        -3.44130
O         30.03263        41.77562        -3.08980
H         30.58414        42.49063        -3.49274
O         44.64870        42.33106        -2.69681
H         45.00265        41.68230        -3.34983
O         29.11952        34.19219         0.55171
H         29.27751        33.37174         1.08426
O         46.38642        21.83831         3.28289
H         47.02585        21.34074         3.83898
O         35.54835        22.45185        -0.82344
H         36.36722        22.87329        -1.19175
O         44.72635        17.89157         0.42112
H         44.02089        17.46184        -0.10443
O         26.64037        41.94733         1.17788
H         27.56433        41.98486         1.52211
O         55.68249        44.12651         1.95380
H         54.89544        43.94953         2.51857
O         27.93288        29.20233         1.76054
H         28.52772        28.56794         2.21915
O         41.44461        24.90258         3.12884
H         41.98305        25.60976         3.54718
O         58.51224        35.39837        -3.23029
H         58.59009        36.34332        -3.48142
O         38.41574        31.27556        -1.88017
H         37.70591        31.54423        -2.50148
O         50.51963        43.87106         1.62916
H         51.10256        43.49602         2.32588
O         30.81110        35.75419        -3.29308
H         29.94837        35.88084        -3.75655
O         49.22895        26.21849        -2.43288
H         48.60251        25.51148        -2.70410
O         27.59970        44.94106        -2.16339
H         27.45232        44.11760        -2.67363
O         54.97763        46.28755        -0.87408
H         54.94958        47.26046        -0.98142
O         41.41905        28.83200        -1.14197
H         42.00988        29.28361        -1.78261
O         46.49606        48.81885        -1.13751
H         47.22079        48.33910        -1.60957
O         30.48187        26.74737        -1.59713
H         29.95840        27.32948        -2.18614
O         33.83515        42.56171         1.05441
H         33.73262        41.66401         1.43796
O         56.40367        33.13906         0.58031
H         55.98722        33.82194         1.16277
O         53.59575        26.46467        -2.19566
H         54.44318        26.44732        -2.68961
O         44.29072        20.59150        -0.54780
H         43.44772        20.82112        -0.99392
O         44.85068        32.92902        -2.94619
H         45.28829        33.72199        -3.35478
O         34.39674        38.96282        -2.34256
H         33.55386        39.21689        -2.77089
O         37.51840        39.90475         1.79102
H         36.97828        40.65839         2.13763
O         52.53442        22.80400        -1.54663
H         51.69544        23.19927        -1.86731
O         39.05728        37.76901         1.74070
H         38.39977        38.38827         2.14362
O         54.76119        31.93660        -3.18214
H         55.39518        31.29654        -3.65911
O         37.96838        23.78617        -0.93675
H         38.22246        24.52333        -1.53609
O         57.07356        27.48665        -2.94018
H         56.90019        28.45235        -3.14163
O         30.34004        31.10622        -2.46609
H         29.54586        31.54310        -2.86243
O         35.51241        41.57084        -2.08854
H         35.38527        42.47489        -2.48071
O         29.32831        31.45596         1.07813
H         28.78214        30.85299         1.64746
O         44.73983        45.01117        -2.10394
H         44.66662        44.16518        -2.61579
O         38.72270        31.43131         1.75541
H         39.38175        30.99594         2.34749
O         37.89298        23.77599         2.71759
H         37.49944        23.12970         3.34879
O         39.23917        26.67224        -1.14561
H         39.84809        27.40797        -1.39105
O         38.76590        50.65625        -2.00956
H         38.27871        50.07772        -2.64021
O         40.48374        29.31746         2.34554
H         39.89718        28.73900         2.88035
O         52.93131        27.70044         1.19796
H         53.80612        28.13184         1.31333
O         51.57569        29.36201        -2.89033
H         50.69465        29.57140        -3.28902
O         31.58810        46.55002        -2.88745
H         32.06395        47.30806        -3.30352
O         52.43960        33.30063        -2.88193
H         53.20704        32.83185        -3.30527
O         46.79404        21.76116        -0.42008
H         46.89690        22.44241        -1.11828
O         49.98998        25.29124         1.76865
H         50.82969        25.24248         2.27227
O         51.06935        44.84291        -1.78854
H         50.43527        44.98050        -2.52696
O         37.94671        27.33863         2.22021
H         37.08506        27.64714         2.57110
O         28.47091        45.66840         1.32808
H         27.65045        45.54989         1.86894
O         47.76975        40.61916        -3.38326
H         46.89075        40.48727        -3.80376
O         39.13780        50.36748         2.45606
H         39.65486        50.82545         3.16708
O         47.58472        24.02303         2.37893
H         47.20699        23.37545         3.02539
H         22.03279        26.95816         1.10921
H         21.95214        29.36254         0.58744
H         21.85844        31.15781        -0.51005
H         21.85413        33.46650        -1.23300
H         21.94302        35.43349        -1.28583
H         21.94712        37.86729        -1.17002
H         22.04493        39.67613        -0.30846
H         22.08422        42.02732         0.25252
H         22.16464        43.95655         0.64110
H         22.15630        46.40604         0.70955
H         25.29859        23.54240         1.24545
H         23.18941        24.83525         1.17095
H         25.39737        49.88536         0.41168
H         23.36606        48.58817         0.75699
H         26.93540        22.48857         0.82886
H         27.10135        50.81007         0.28280
H         29.03561        21.28523         0.77540
H         29.20421        52.02755         0.26416
H         32.77468        19.08830         1.19655
H         30.69266        20.31671         1.09010
H         32.88688        54.02181         0.99348
H         30.81161        52.84078         0.64089
H         34.55758        18.06751         1.01330
H         34.51540        54.48395         2.18742
H         36.66676        16.94276         1.49523
H         36.56230        55.74020         2.69131
H         40.48874        15.10386         2.96118
H         38.30145        16.16646         2.50232
H         40.39365        58.52776         1.82109
H         38.20512        57.34011         1.67868
H         42.92287        15.20586         3.13246
H         42.85728        58.45087         1.72877
H         45.05093        16.31128         2.68599
H         44.96189        57.22042         1.54590
H         48.70744        18.63137         2.45684
H         46.64720        17.56273         3.20763
H         48.63608        54.92294         1.85979
H         46.57401        56.18696         1.81851
H         50.20786        19.32294         1.31507
H         50.24556        53.91448         1.99570
H         52.26406        20.42524         0.59990
H         52.26489        52.64550         2.42168
H         56.08506        22.57041         0.40531
H         53.99088        21.38894         0.52652
H         55.04672        49.16473         4.78009
H         53.15613        50.75629         4.41271
H         57.63227        23.47008        -0.83227
H         58.13741        47.44159         3.93088
H         59.69953        24.66239        -1.47918
H         60.95067        26.77394        -1.93478
H         60.98360        29.22678        -2.01024
H         61.06572        31.18848        -1.56371
H         61.01718        33.62592        -1.79664
H         61.03373        35.53401        -1.67069
H         61.02076        37.92103        -1.26642
H         60.94639        39.83552        -1.60687
H         60.92984        42.25764        -1.51880
H         60.80788        44.38258        -1.33626
H         60.95496        46.30903         0.03853
H         60.10925        46.92930         2.49158
