         276
 CSIRO Nanostructure Databank - Neutral Graphene Oxide Data Set
C        -11.32811         0.68803        -0.19300
C        -10.10915         1.46949        -0.06941
C         -8.81418         0.67921        -0.09788
C         -7.69802         1.42437         0.66706
C         -6.55138         0.61205         1.28409
C         -5.26444         1.44936         1.52358
C         -3.98738         0.65822         1.94090
C         -2.64493         1.48532         1.85860
C         -1.33751         0.73332         1.91480
C         -0.11618         1.46085         1.38140
C          1.12510         0.67287         1.13274
C          2.41424         1.34472         0.64758
C          3.72013         0.74926         1.15558
C          4.90266         1.42753         0.83964
C          6.23767         0.81105         1.21304
C          7.39877         1.28294         0.34701
C          8.73748         0.69011         0.70476
C          9.96941         1.35294         0.14081
C         11.15672         0.50578        -0.10168
C        -10.05282         2.82480        -0.19316
C         -8.71348         3.47151        -0.48319
C         -7.62712         2.89754         0.45026
C         -6.39927         3.77473         0.77712
C         -5.21409         2.94642         1.32559
C         -3.87547         3.69893         1.59700
C         -2.60304         2.89007         1.20649
C         -1.32513         3.69956         1.61149
C          0.02838         2.93405         1.74967
C          1.26305         3.59514         1.11471
C          2.36942         2.86144         0.79360
C          3.60269         3.48085         0.22912
C          4.86978         2.71423         0.25140
C          6.03175         3.27954        -0.45572
C          7.33471         2.54282        -0.45184
C          8.60568         3.30164        -0.69859
C          9.83533         2.62812        -0.55693
C         -8.62017         4.96129        -0.47706
C         -7.36670         5.56524        -0.61825
C         -6.10092         4.69815        -0.43125
C         -4.72177         5.48543        -0.26043
C         -3.87945         5.14125         0.99189
C         -2.59887         5.94263         1.06159
C         -1.32237         5.20561         1.43624
C          0.02001         5.89956         1.21638
C          1.30703         5.09379         1.16003
C          2.60902         5.80343         0.76241
C          3.70690         4.97625         0.15953
C          5.10497         5.59278         0.00980
C          6.03476         4.73194        -0.85148
C          7.35075         5.37914        -1.45798
C          8.58631         4.65627        -1.01131
C         -7.32724         6.92745        -0.93223
C         -6.07898         7.64332        -1.11329
C         -4.82115         6.98728        -0.61731
C         -3.72397         7.92939        -0.20287
C         -2.51771         7.35536         0.46626
C         -1.18489         8.08638         0.26324
C          0.03129         7.16368         0.36316
C          1.31711         7.81225        -0.04747
C          2.62892         7.26954         0.42634
C          3.87607         7.93379        -0.11683
C          5.06713         7.08171        -0.39394
C          6.01691         7.50209        -1.54759
C          7.32837         6.85216        -1.24004
C         -6.05525         9.10401        -1.37520
C         -4.89772         9.77661        -1.48328
C         -3.57771         9.26640        -0.95156
C         -2.38528         9.11122        -1.89769
C         -1.13938         8.87778        -1.05784
C          0.03344         9.41592        -1.46144
C          1.30737         9.08331        -0.83428
C          2.45006         9.70439        -1.21475
C          3.77962         9.38752        -0.58604
C          4.98461         9.79682        -1.40699
C          6.02440         9.00861        -1.70795
C        -11.29829        -0.66278        -0.40376
C        -10.08098        -1.43830        -0.27108
C         -8.97870        -0.73014         0.49166
C         -7.65331        -1.48569         0.38265
C         -6.38273        -0.75225         0.63807
C         -5.07342        -1.45918         0.80324
C         -3.86108        -0.70670         1.24042
C         -2.62775        -1.52543         1.52471
C         -1.34721        -0.79121         1.78609
C         -0.05156        -1.53192         1.35596
C          1.13270        -0.66993         1.88462
C          2.49266        -1.38806         1.88899
C          3.78973        -0.69435         1.49688
C          5.06727        -1.40429         1.08480
C          6.24856        -0.69860         1.19225
C          7.52849        -1.39581         1.19043
C          8.73292        -0.77179         0.93234
C         10.03586        -1.56492         0.83397
C         11.18136        -0.79536         0.21421
C         -9.91669        -2.71053        -0.75598
C         -8.72555        -3.50068        -0.51668
C         -7.77264        -2.98448         0.54248
C         -6.41177        -3.69719         0.65381
C         -5.09850        -2.96408         0.84537
C         -3.80780        -3.67023         0.78113
C         -2.52187        -2.88645         0.80980
C         -1.35041        -3.73807         1.33680
C         -0.11164        -2.98833         1.88125
C          1.19917        -3.72057         1.57791
C          2.42172        -2.87507         1.81355
C          3.98552        -3.45651         0.13951
C          5.17295        -2.78248         0.59690
C          6.35729        -3.51271         0.68496
C          7.45999        -2.86981         1.40875
C          8.84955        -3.20835        -0.77954
C          9.84973        -2.88602         0.07887
C         -8.53568        -4.72733        -1.08812
C         -7.42168        -5.58886        -0.76550
C         -6.43275        -5.19909         0.33126
C         -5.04844        -5.72600        -0.09166
C         -3.75892        -4.99530         0.16936
C         -2.48035        -5.76393         0.16154
C         -1.26188        -5.14233         0.79021
C          0.05811        -5.75769         0.42485
C          1.31224        -5.02514         0.81640
C          2.62587        -5.59067         0.28385
C          3.92013        -4.87564         0.17018
C          5.11116        -5.57878        -0.07392
C          6.45872        -4.97916         0.28221
C          7.50485        -5.36024        -0.78927
C          8.58638        -4.61586        -1.16348
C         -7.29290        -6.78683        -1.40612
C         -6.20244        -7.74098        -1.11680
C         -5.00947        -7.20295        -0.35192
C         -3.67244        -7.86103        -0.51158
C         -2.44377        -7.07303        -0.21255
C         -1.14918        -7.86241        -0.15301
C          0.08610        -6.97318        -0.19533
C          1.28537        -7.50084        -0.99532
C          2.57700        -6.87792        -0.52488
C          3.80199        -7.20758        -1.24287
C          5.05109        -6.80837        -0.78350
C          6.27683        -7.48895        -1.21222
C          7.43704        -6.74934        -1.23567
C         -5.98335        -8.86773        -2.04508
C         -4.78893        -9.47733        -2.17997
C         -3.59489        -9.08075        -1.40297
C         -2.24546        -9.49502        -1.90217
C         -1.04906        -8.94073        -1.23055
C          0.21910        -9.71035        -1.19016
C          1.38558        -9.04028        -1.03858
C          2.66245        -9.77349        -0.98492
C          3.81219        -9.31066        -1.55944
C          5.19143        -9.77052        -1.47489
C          6.26854        -8.92641        -1.46312
O          3.25039         4.25362        -1.00473
O         -5.90603        -3.46963         2.01292
O          2.90096         6.80678         1.77780
O          5.04017         7.88958         0.79990
O          7.20473         1.22473        -1.09718
O         -3.66675        -9.21115         0.05293
O         -6.83488        -1.01158        -0.72101
O         -3.66061         6.04478         2.08092
O          9.58113         1.46288         1.59619
O         -5.62874         2.36828         2.59988
O          0.82980         5.73905         2.39587
O          6.56777         1.29806         2.58652
O         -2.08373        -1.45571         2.85380
O         -3.50957         8.17339         1.20162
O         -4.45911        -5.00403        -1.21041
O         -1.62141        -4.86340         2.21250
O         -4.14825        -0.81983        -0.18376
O         -5.07296         7.01970        -2.05753
O          0.12423         0.93913         0.03739
O          2.86306        -2.80410        -0.01198
O         -8.23769         2.35656         1.66090
O         -5.99199        -8.01121         0.31858
O          3.69912        -8.09650        -2.30479
O          8.23104        -3.49824         2.16097
O          5.52864         3.78237        -1.78864
O          3.41546        -0.94963         2.92382
O          1.34602        -4.97182         2.30740
O          0.61369         6.80541        -0.92320
O          2.80895        -6.90154         0.91488
O         -1.89774         1.34445         3.09324
O         -1.45743         4.59761         2.74575
O          1.07956        -7.02151        -2.34241
O         -2.19217        -2.62903        -0.58509
H         -2.93629        -2.09820        -0.96135
O          2.49413         1.09952        -0.78663
H          1.66144         1.42524        -1.19368
O         -1.01782         9.03076         1.33381
H         -1.80492         9.62511         1.30738
O         -6.85892        -5.84656         1.54548
H         -6.38208        -5.40451         2.28553
O         -3.16007        10.28389        -0.00701
H         -3.82952        10.31800         0.71023
O         -3.81701         4.98282        -1.29168
H         -3.96502         5.53879        -2.09610
O         -9.37975        -0.60754         1.86368
H         -9.24881        -1.48602         2.28902
O         -5.95851         3.84633        -1.58127
H         -4.99715         3.84242        -1.82899
O          0.07974        -1.69047        -0.05492
H          0.03028        -0.81101        -0.49502
O         -3.81960         3.79574         3.01920
H         -3.60049         4.72804         3.26158
O         -0.16196        -2.95354         3.31475
H         -0.63202        -3.76724         3.61087
O         -6.76213         4.66470         1.84463
H         -6.95649         4.09907         2.62583
O          0.34960         2.88173         3.15151
H          0.04793         3.73076         3.55382
O          6.00839         0.35680         3.52764
H          5.05778         0.62210         3.60333
O         -6.97497         0.23887         2.61404
H         -7.32848         1.05402         3.03737
O          3.34999        -3.50103         2.51861
H          3.05587        -4.43940         2.66742
O          3.82284        10.20198         0.61895
H          4.54713         9.84170         1.17807
O          7.28435         5.13964        -2.90324
H          6.84931         4.25886        -3.02045
O          5.40100         6.97888        -2.73669
H          6.02016         6.31595        -3.14165
O          5.72848         5.52638         1.31051
H          5.42780         6.31985         1.81685
O         -1.45495        -8.46332        -2.57166
H          0.28244        -7.46195        -2.71738
O         -8.45782         3.11586        -1.89062
H         -7.55303         3.44114        -2.13035
O         10.43845        -1.89583         2.17797
H          9.74837        -2.50800         2.53915
O          0.84191        -0.32339         3.24644
H          0.52084        -1.12440         3.72218
O         -1.09123        -8.56462         1.11228
H         -1.26270        -7.92440         1.83455
O         -8.44668        -3.21310         1.81254
H         -8.34597        -4.16668         2.03038
O         -2.60175         7.96772        -2.72768
H         -1.81010         7.83769        -3.28899
O          6.88513        -5.70437         1.46859
H          7.56648        -5.13893         1.92305
O         -2.59093         2.71322        -0.22042
H         -1.83467         2.14193        -0.47641
O         -8.49966         0.51014        -1.48850
H         -8.54792         1.39868        -1.92651
O         -4.17985         0.30815         3.30820
H         -4.38970         1.13539         3.79566
O          8.01466        -2.26051        -1.31794
H          7.41202        -2.67432        -1.96609
H         12.09648        -1.37803         0.02983
H         12.03349         0.98306        -0.56653
H         10.75363         3.12913        -0.89882
H          9.54983         5.16209        -1.17391
H          7.85524         7.23684        -0.35016
H          6.88262         9.43670        -2.24877
H          5.04152        10.87171        -1.64204
H          2.39104        10.57226        -1.88911
H          0.05904        10.08075        -2.34025
H         -2.24470        10.02992        -2.53290
H         -4.90954        10.83541        -1.78473
H         -7.00570         9.58509        -1.65227
H         -8.27271         7.47831        -1.03819
H         -9.52402         5.57177        -0.62624
H        -10.97048         3.42837        -0.27324
H        -12.28411         1.22941        -0.26811
H        -12.22862        -1.19053        -0.66685
H        -10.71991        -3.17400        -1.35158
H         -9.26422        -5.09948        -1.82541
H         -8.01628        -7.05932        -2.19042
H         -6.82092        -9.16164        -2.69615
H         -4.65796       -10.26938        -2.93309
H         -2.17161       -10.49306        -2.38675
H          0.19750       -10.80493        -1.29978
H          2.66286       -10.74737        -0.47318
H          5.37621       -10.85613        -1.46188
H          7.26662        -9.39261        -1.50106
H          8.35995        -7.20278        -1.63167
H          9.35854        -5.11871        -1.77382
H         10.46254        -3.71647         0.45735
