         300
 CSIRO Nanostructure Databank - Neutral Graphene Oxide Data Set
C         30.00595        31.57079        -0.59618
C         30.24736        32.72424        -0.99286
C         30.24365        35.89572        -1.03839
C         30.37299        37.00773        -0.50833
C         30.25923        40.01824         0.39279
C         30.28804        41.20691         0.77979
C         32.41144        29.21210         0.44371
C         31.16771        29.33069         0.08506
C         32.82656        31.77612        -0.11221
C         30.80734        30.69282         0.18518
C         32.69524        32.90355        -0.93379
C         31.40721        33.54916        -1.30433
C         32.69080        35.96524        -1.35695
C         31.39377        35.07432        -1.44171
C         32.69451        37.10954        -0.29654
C         31.49872        37.76211        -0.02624
C         32.68890        39.94251         0.68727
C         31.39333        39.09986         0.57620
C         32.65918        41.42191         0.77779
C         31.39477        42.08576         0.97036
C         32.66587        43.96047         1.57186
C         31.54326        43.43307         1.38630
C         35.40671        27.56834         1.15399
C         34.59916        28.75260         1.47448
C         33.75548        29.52564         0.43254
C         35.16799        31.34860        -0.93416
C         33.95610        30.86993        -0.06192
C         35.16325        32.89871        -0.82695
C         33.92778        33.52850        -1.55443
C         35.25562        35.74816        -0.91285
C         33.97615        35.09813        -1.36058
C         35.35279        37.13807        -0.28405
C         33.98628        37.76883         0.07409
C         35.19066        40.09190         0.08242
C         33.99712        39.25384         0.41088
C         35.13252        41.44661         0.37191
C         33.91215        42.10122         0.83354
C         35.17458        44.17990         1.38827
C         33.96838        43.48746         1.27447
C         35.49182        45.41622         1.99141
C         37.92352        27.37657         0.74462
C         36.52472        27.06649         1.07894
C         37.86569        28.85606         0.41280
C         36.74358        29.33856        -0.48191
C         37.68001        31.53765        -0.60749
C         36.52888        30.79870        -0.52112
C         37.65122        32.83443        -1.31923
C         36.39666        33.56923        -1.35309
C         37.62660        35.79292        -1.53903
C         36.55575        34.97162        -0.81987
C         37.58766        37.31721        -1.57905
C         36.31368        38.03393        -1.09205
C         37.61156        40.25236        -0.86695
C         36.29372        39.50436        -0.77124
C         37.59324        41.70713        -0.43734
C         36.31125        42.32139         0.05366
C         37.66258        44.52693         0.60890
C         36.36721        43.73207         0.59810
C         37.75004        45.85067         1.39117
C         36.54676        46.04190         2.22661
C         40.40104        25.38708         2.86471
C         39.37886        25.72681         2.26194
C         40.40115        27.80364         1.50970
C         39.18670        26.86122         1.34683
C         40.23609        29.34556         1.49505
C         38.95080        29.81676         0.80506
C         40.21968        31.89315        -0.06311
C         38.86126        31.27031         0.32704
C         40.24655        33.13051        -0.88561
C         38.95919        33.65550        -1.41836
C         40.15150        35.83092        -1.87651
C         38.90623        35.07832        -1.53305
C         40.06680        37.17225        -1.04312
C         38.96917        38.07192        -1.66048
C         40.11473        40.05883        -0.32181
C         38.90895        39.50415        -1.05929
C         40.13154        41.54121        -0.02279
C         38.92966        42.42813        -0.30611
C         40.27819        44.31941         0.94513
C         38.97696        43.84422         0.22772
C         40.33803        45.84939         1.07553
C         39.06029        46.50809         1.59956
C         40.46196        48.13619         2.78552
C         39.40034        47.54869         2.57533
C         42.96411        25.73417         3.39554
C         41.53222        26.18182         3.39831
C         42.70985        28.45803         2.59915
C         41.60372        27.40543         2.31066
C         42.70356        29.56274         1.53676
C         41.52781        30.01965         1.04721
C         42.76301        31.92612        -0.24204
C         41.46830        31.01714        -0.09553
C         42.67471        32.75838        -1.58666
C         41.50357        33.73303        -1.43742
C         42.66976        35.85929        -2.14605
C         41.45803        35.05363        -1.73178
C         42.70175        37.15775        -1.29296
C         41.43046        37.82179        -0.81472
C         42.65589        40.10014        -0.70348
C         41.44715        39.23904        -0.17100
C         42.73981        41.43457         0.06933
C         41.47482        42.21075         0.26482
C         42.86092        44.26362         0.85784
C         41.55124        43.74723         0.23917
C         42.93168        45.72331         1.19628
C         41.65399        46.53904         1.22048
C         43.00349        48.24505         2.52483
C         41.67011        48.28314         1.94584
C         43.92583        26.50818         3.31179
C         45.22576        28.74375         2.99407
C         44.13732        27.77075         2.53733
C         45.23298        29.97714         1.97973
C         43.98150        30.29466         1.21777
C         45.27368        31.92510        -0.29965
C         44.03427        31.04723        -0.12204
C         45.27024        32.92592        -1.22674
C         44.06828        33.41391        -2.10376
C         45.26521        35.80438        -1.84073
C         44.00462        35.05579        -2.13579
C         45.15934        37.03789        -0.95652
C         44.00028        37.98362        -1.37946
C         45.24896        39.96028        -0.17343
C         43.95061        39.28760        -0.55851
C         45.33686        41.46516        -0.09681
C         44.00624        42.27249        -0.11161
C         45.25117        43.91827         1.51365
C         44.00652        43.51167         0.78485
C         45.28080        45.28924         2.18713
C         44.20116        46.24771         1.83796
C         43.98474        47.50947         2.56344
C         47.58526        28.46782         2.14398
C         46.59079        28.16152         2.78800
C         47.76746        29.62294         1.21609
C         46.59905        30.62689         1.63528
C         47.85052        32.23305         0.04569
C         46.51507        31.71717         0.54045
C         47.88813        32.85254        -1.33795
C         46.56788        33.55736        -1.60849
C         47.82436        35.81523        -1.78818
C         46.55843        35.02794        -1.80715
C         47.77543        37.24925        -1.36330
C         46.51028        37.76995        -0.71985
C         47.90491        39.83814         0.15302
C         46.55571        39.17486        -0.17783
C         48.05684        41.35075         0.16412
C         46.66646        42.07424         0.31807
C         48.05949        44.05169         1.24087
C         46.56734        43.12104         1.40835
C         47.69384        45.18677         2.10511
C         46.65305        45.77711         2.41049
C         50.45318        29.72487         1.17839
C         49.11078        30.33282         1.25663
C         50.46386        32.04615        -0.15131
C         49.16507        31.68127         0.56876
C         50.42793        32.99924        -1.33927
C         49.13324        33.72253        -1.53055
C         50.33957        35.87905        -2.00976
C         49.10558        35.06915        -1.75663
C         50.31246        37.39317        -1.78516
C         49.02953        38.14007        -1.33792
C         50.53768        39.74148         0.13559
C         49.16983        39.10052        -0.14401
C         50.47068        41.16914         0.71559
C         49.29336        41.81138         0.96508
C         50.56316        43.77885         1.50561
C         49.20788        43.16584         1.72821
C         51.55955        30.21248         0.93531
C         52.88024        32.11496        -0.33156
C         51.80606        31.66995         0.61283
C         52.79990        33.02653        -1.15321
C         51.73637        33.59573        -2.02018
C         52.75067        36.05386        -1.76063
C         51.67168        35.11995        -2.10563
C         52.74899        37.27575        -1.59186
C         51.60786        38.20814        -1.64900
C         52.46247        40.55728        -0.94212
C         51.54093        39.53790        -1.01116
C         52.66125        41.66248        -0.34349
C         51.90628        41.78934         1.01155
C         51.64294        43.19433         1.42566
O         46.58179        34.10828        -2.94749
O         37.30844        36.53325        -2.76097
O         40.95457        46.56714        -0.04950
O         35.75399        38.96660        -2.03865
O         48.55203        38.99081         1.16151
O         36.66121        42.34474        -1.36015
O         42.15163        41.57216         1.39675
O         38.16863        46.94688         0.54615
O         47.07995        33.00319         1.00569
O         44.00434        46.39447         0.41855
O         46.17249        42.23571        -1.02109
O         34.10902        38.22193         1.46234
O         44.30036        32.96547        -3.37552
O         34.57991        29.20070         2.59462
O         38.33383        40.31322        -2.13444
O         44.36561        39.33330         0.82457
O         49.22494        31.56821         2.00959
O         41.56699        27.17548         0.87764
O         44.90774        44.14692         2.95962
O         44.36114        31.05779         2.40737
O         46.53701        38.00956         0.70331
O         37.80649        29.58464         1.68648
O         38.44261        32.84238        -2.55219
O         38.81213        26.56986        -0.03121
O         50.39307        31.56088        -1.50816
O         39.12145        43.55487        -1.18406
O         31.77653        31.52444         0.82645
O         47.64458        36.88560        -2.77847
O         44.77451        35.75928        -3.19486
O         47.95546        31.69711        -2.25932
O         50.93043        38.09879        -2.91362
O         50.97993        35.54282        -3.29432
O         32.02802        39.31054         1.84274
O         42.22513        36.92548         0.04363
O         31.38723        34.25110        -2.58069
O         36.09121        28.60525        -1.21633
O         40.32359        33.19988         0.60077
O         39.72765        40.57858         1.00133
O         36.71741        44.68093        -0.47499
O         34.88643        35.70381        -2.32813
O         51.86171        32.40195         1.80040
H         52.60432        32.08420         2.35285
O         42.50989        29.00294         3.90294
H         41.72434        29.59914         3.86148
O         40.07498        29.71667         2.89471
H         39.11354        29.84408         3.07270
O         42.89066        32.82667         0.85423
H         42.03696        33.29474         1.01129
O         48.76103        39.12096        -2.37202
H         48.73747        38.64642        -3.23398
O         40.23154        43.82889         2.29850
H         40.60416        42.92106         2.34543
O         44.03219        30.05228        -1.16683
H         44.17828        30.50747        -2.02626
O         51.11014        38.90677         1.17637
H         50.45378        38.86457         1.90924
O         49.08046        42.88791         3.10923
H         48.93277        43.73130         3.58683
O         38.39487        31.97920         1.50243
H         38.74686        32.90146         1.45961
O         42.49406        36.31112        -3.51894
H         42.82515        35.60509        -4.11778
O         32.63260        36.69441        -2.59241
H         33.52939        36.68034        -3.00653
O         52.57629        41.04111         1.96564
H         53.45391        41.43410         2.14568
O         43.93316        42.76460        -1.46974
H         43.09722        43.28364        -1.58999
O         34.94974        33.20807         0.57714
H         35.80406        33.53567         0.95821
O         34.85857        30.91548        -2.25508
H         35.11666        29.96608        -2.33192
O         44.77416        36.43787         0.29076
H         44.79221        37.13317         0.99079
O         41.56788        44.14122        -1.14207
H         41.43951        45.12260        -1.18401
O         41.63087        38.96688         1.21135
H         41.57183        39.81493         1.71126
O         46.70001        42.36646         2.59578
H         46.24745        42.85213         3.32490
O         44.42048        27.46069         1.18435
H         43.73461        26.84952         0.83805
O         37.08638        34.74134         0.52569
H         37.11955        35.60748         1.00495
O         48.25839        44.40686        -0.08597
H         47.66262        45.13874        -0.34363
O         42.39717        40.42786        -2.07182
H         42.99232        39.89973        -2.65849
O         39.57371        36.81454         0.26903
H         40.35600        36.64371         0.84342
O         44.19477        38.42179        -2.73590
H         44.22292        37.61183        -3.31308
O         36.10072        36.99462         0.95182
H         35.58149        37.42765         1.67961
O         46.94861        31.21827         2.88934
H         47.20507        32.15698         2.72771
O         39.94977        35.99560        -3.28790
H         40.78433        36.33621        -3.69818
O         47.51087        29.23250        -0.12813
H         48.12733        28.51636        -0.38751
O         33.93126        33.28362        -2.94710
H         34.63106        33.83962        -3.35484
O         45.02746        29.19169         4.30190
H         45.62619        29.95244         4.45854
O         48.52827        41.65992        -1.17233
H         47.75883        41.87538        -1.75018
O         41.52717        49.16457         0.92219
H         40.63878        49.08683         0.51841
O         41.18372        26.72089         4.63490
H         41.83460        27.42859         4.86314
O         41.26288        30.15746        -1.23576
H         42.13931        29.76237        -1.46848
O         48.32725        32.19740        -3.56366
H         47.48365        32.59479        -3.90301
O         39.32997        38.27652        -3.02046
H         38.67243        38.88659        -3.42354
O         51.83220        33.07658        -3.32618
H         51.33487        33.66531        -3.93559
O         42.27257        31.87768        -2.63523
H         42.89090        32.08186        -3.40081
