         210
 CSIRO Nanostructure Databank - Neutral Graphene Oxide Data Set
C         32.00683        32.20610        -3.68393
C         31.76189        33.30107        -3.11755
C         31.02443        36.10626        -1.96816
C         30.87478        37.31104        -1.65725
C         30.65939        40.44107        -0.99122
C         30.54742        41.68437        -0.79667
C         34.14003        29.24904        -2.80102
C         33.36099        29.97392        -3.47397
C         33.41517        31.69646        -1.81894
C         32.88290        31.25512        -3.10494
C         33.26079        33.04966        -1.33446
C         32.32696        33.90373        -1.96870
C         33.01363        35.95831        -0.74123
C         32.08229        35.25970        -1.55063
C         32.98124        37.38480        -0.59893
C         31.82551        38.15903        -1.03409
C         32.95754        40.35331        -0.55025
C         31.72885        39.55238        -0.85688
C         32.87264        41.80408        -0.17989
C         31.61407        42.51523        -0.37250
C         32.80115        44.45486         0.25057
C         31.73184        43.90071        -0.10975
C         35.93852        27.43602        -0.81938
C         35.68756        28.81594        -0.73639
C         34.66497        29.50665        -1.50310
C         35.50237        31.65883         0.26369
C         34.11400        30.71458        -1.04659
C         35.41670        33.04361         0.14224
C         34.00616        33.62316        -0.09421
C         35.34282        35.93476         0.31312
C         34.06963        35.17116        -0.06868
C         35.35369        37.40287         0.14173
C         34.15853        38.07248        -0.15686
C         35.30689        40.23189         0.48894
C         34.19026        39.55208        -0.23108
C         35.26740        41.72425         0.63787
C         34.04017        42.47317         0.24310
C         35.29215        44.55245         0.80041
C         34.08163        43.89381         0.46016
C         35.47805        45.93604         1.02645
C         37.96802        27.32619         0.39665
C         36.86644        26.77640        -0.28789
C         37.89002        28.75715         0.51029
C         36.72809        29.47225         0.03675
C         37.88686        31.63142         0.55027
C         36.69869        30.90530         0.26239
C         37.82507        33.05368         0.62180
C         36.62604        33.77207         0.37058
C         37.82456        35.95270         0.52169
C         36.63034        35.22058         0.41276
C         37.81950        37.39777         0.47949
C         36.59243        38.11377         0.33378
C         37.78923        40.25921         0.64961
C         36.60072        39.52916         0.46397
C         37.77461        41.70467         0.77455
C         36.56196        42.43351         0.74978
C         37.80413        44.54908         1.06666
C         36.55911        43.85138         0.86301
C         37.84944        45.97037         1.28377
C         36.55131        46.54138         1.24947
C         40.13533        24.50731         1.60246
C         39.19293        25.20427         1.13439
C         40.15569        27.29419         1.55160
C         39.04371        26.59899         0.98101
C         40.26487        28.74864         1.39893
C         39.05560        29.47878         1.00725
C         40.25822        31.65934         1.27069
C         39.06767        30.88478         0.90792
C         40.32355        33.07297         0.71505
C         39.03957        33.80924         1.12604
C         40.27733        35.96677         0.80813
C         39.07772        35.27122         0.73198
C         40.28664        37.41204         0.72999
C         39.03698        38.11718         0.61140
C         40.25378        40.26823         0.72612
C         39.03010        39.54707         0.66618
C         40.25215        41.69408         0.81637
C         39.02083        42.40867         0.87867
C         40.28976        44.52583         1.17146
C         39.03882        43.83019         1.04044
C         40.31266        45.92229         1.44468
C         39.07898        46.62890         1.51284
C         40.33920        48.65098         1.85354
C         39.25363        48.01604         1.82181
C         42.64181        24.69708         2.38982
C         41.28098        25.09780         2.18899
C         43.05814        27.49347         1.77961
C         41.15368        26.52597         2.20824
C         42.80772        28.77185         1.22471
C         41.51895        29.41517         1.42971
C         42.80401        31.63822         1.22230
C         41.56583        30.88885         1.48382
C         42.80694        33.11072         1.56966
C         41.57236        33.84390         1.06312
C         42.75842        35.99005         1.03098
C         41.55642        35.25131         0.99193
C         42.79070        37.48237         1.17215
C         41.48575        38.13913         0.80315
C         42.72469        40.26581         0.57794
C         41.49019        39.55566         0.72220
C         42.71633        41.68020         0.56733
C         41.49497        42.40238         0.80254
C         42.77023        44.52440         0.82530
C         41.52149        43.80739         0.97262
C         42.82052        45.92011         1.08528
C         41.64658        46.56761         1.82037
C         42.90326        48.64918         1.48128
C         41.63980        48.15354         1.76357
C         43.73008        25.29826         2.29170
C         45.10053        26.71539         0.63753
C         44.09292        26.52023         1.60838
C         44.99167        28.88390         0.09580
C         43.89332        29.53604         0.66434
C         45.18344        31.65480         0.47253
C         43.93612        30.97500         0.79614
C         45.23278        33.06693         0.52771
C         44.10879        33.82144         1.14988
C         45.17516        36.01231         0.30923
C         44.05772        35.30525         0.96434
C         45.16388        37.39507         0.20339
C         43.98596        38.15340         0.52280
C         45.10576        40.26039        -0.16266
C         43.94972        39.53692         0.33050
C         45.05273        41.66900        -0.20858
C         43.91276        42.39727         0.25513
C         45.11734        44.55470        -0.00396
C         43.92696        43.82524         0.34746
C         45.13160        45.97556         0.20635
C         44.01967        46.63512         0.78994
C         43.94056        48.01214         1.13960
C         47.29928        27.35448         0.04240
C         46.50601        26.55528         0.61528
C         47.49149        28.74143        -0.16715
C         46.27770        29.49220        -0.03823
C         47.59251        31.60525        -0.10278
C         46.34725        30.92218         0.10492
C         47.59803        33.04909        -0.10784
C         46.39088        33.75526         0.12505
C         47.63802        35.96262         0.00322
C         46.33442        35.22118        -0.26020
C         47.53131        37.39740        -0.48660
C         46.36141        38.10358        -0.27395
C         47.49991        40.22152        -0.85529
C         46.31558        39.53941        -0.48539
C         47.45484        41.66200        -1.15767
C         46.16343        42.42494        -0.80879
C         47.43814        44.54646        -0.94788
C         46.24257        43.87738        -0.57466
C         47.33557        45.94155        -0.71082
C         46.35169        46.54763        -0.22745
C         49.98894        28.80300        -0.63272
C         48.71931        29.43095        -0.37522
C         50.02581        31.60926        -0.79387
C         48.76841        30.84911        -0.38034
C         50.09469        32.96498        -0.07639
C         48.83040        33.77633        -0.29242
C         50.10170        35.86565        -0.61411
C         48.86991        35.16580        -0.40747
C         50.05013        37.28491        -1.06509
C         48.71430        38.07462        -1.02685
C         49.95191        40.25134        -1.29306
C         48.74239        39.54847        -1.03783
C         49.95830        41.70756        -1.39187
C         48.71913        42.41398        -1.28443
C         49.90603        44.40439        -1.52737
C         48.63345        43.83756        -1.31511
C         51.09514        29.40960        -0.61544
C         52.50094        31.59576        -0.44537
C         51.42277        30.76367        -0.59061
C         52.44344        32.88565        -0.44634
C         51.39153        33.76621        -0.37562
C         52.45676        36.06358        -0.68025
C         51.34366        35.16929        -0.53636
C         52.40082        37.29190        -0.90292
C         51.27224        38.12455        -1.10445
C         52.30471        40.37778        -1.49586
C         51.20026        39.49870        -1.32958
C         52.35545        41.61633        -1.63709
C         51.20019        42.44734        -1.58261
C         51.02319        43.84181        -1.66566
O         34.29376        30.95514         0.31732
O         40.76882        31.44958         2.59014
O         33.99665        40.09729        -1.58220
O         34.31482        35.56450         1.32135
O         44.70584        27.59612        -0.41776
O         34.97702        40.81733         1.78872
O         44.57448        34.68335         2.25202
O         46.46719        42.01608        -2.18302
O         49.22635        37.45731        -2.26179
O         42.17412        27.22654         2.86290
O         42.71384        33.17415         3.01686
H         43.31104        33.90755         3.30500
O         42.95725        37.74106         2.62084
H         42.27955        37.21293         3.09467
O         50.12128        32.65865         1.33695
H         49.99191        33.48610         1.84505
O         47.76600        36.06055         1.45407
H         48.52586        36.64120         1.66643
O         40.31485        32.92669        -0.73599
H         40.24590        33.82184        -1.13097
O         41.84962        46.27009         3.23678
H         41.85875        45.29532         3.34470
O         33.17927        33.25435         1.02721
H         33.44977        33.82050         1.78474
O         49.95632        31.84347        -2.19634
H         49.79914        30.99352        -2.65747
O         46.15842        35.21729        -1.70816
H         45.36923        34.68080        -1.92890
O         38.99211        33.78647         2.57570
H         38.14356        34.18273         2.86319
