         424
 CSIRO Nanostructure Databank - Neutral Graphene Oxide Data Set
C          1.40932         2.03550        -1.55481
C          1.32888         3.42797        -1.23226
C          2.56910         1.32939        -1.43237
C          2.42797         4.15450        -0.81770
C          1.24782         6.32353        -0.65471
C          1.25266         7.75609        -0.56925
C          2.41167         5.60072        -0.67374
C          2.38666         8.46232        -0.26364
C          1.24826        10.65984        -0.54313
C          1.25085        12.03793        -0.53774
C          2.41958         9.91878        -0.23674
C          2.43802        12.76366        -0.28402
C          1.24955        14.96386        -0.44243
C          1.26733        16.34655        -0.46181
C          2.44309        14.21203        -0.29129
C          2.48656        17.05511        -0.35438
C          2.51530        18.49224        -0.38990
C          3.73759         1.92725        -0.78294
C          3.67077         3.44351        -0.46879
C          5.06413         1.34560        -0.94070
C          4.94730         4.18255        -0.35695
C          3.71549         6.37908        -0.67170
C          3.60892         7.66156         0.15403
C          4.94906         5.58857        -0.29005
C          4.90545         8.43570         0.11427
C          3.61038        10.62040         0.03879
C          3.63758        12.03957        -0.02207
C          4.82842         9.87887         0.54150
C          4.88331        12.75974         0.13333
C          3.67602        14.90339        -0.15072
C          3.69804        16.32905        -0.20871
C          4.90041        14.17064         0.03039
C          4.94357        17.03653        -0.12578
C          3.69296        19.17510        -0.29008
C          4.94582        18.47831        -0.15808
C          6.21124         2.03101        -0.54604
C          6.16146         3.46308        -0.23391
C          7.46360         1.36776        -0.58047
C          7.35302         4.16934         0.05331
C          6.14083         6.29742        -0.02952
C          6.11160         7.75684         0.11230
C          7.36048         5.58384         0.15010
C          7.36141         8.46555         0.29859
C          6.12109        10.62235         0.34014
C          6.11617        12.04059         0.28452
C          7.33834         9.91132         0.37561
C          7.35669        12.75647         0.29094
C          6.14832        14.88020         0.05775
C          6.15546        16.32682        -0.02502
C          7.35610        14.16925         0.15864
C          7.39444        17.04620         0.06130
C          6.14763        19.17525        -0.05483
C          7.38635        18.48924         0.07023
C          8.66165         1.99880        -0.16846
C          8.59269         3.40833         0.29129
C          9.87246         1.34145        -0.18072
C          9.89846         4.18148         0.40728
C          8.61070         6.31198         0.28308
C          8.58725         7.75354         0.32369
C          9.84630         5.64698         0.30129
C          9.83007         8.44326         0.48548
C          8.56198        10.64059         0.52071
C          8.58863        12.03981         0.46683
C          9.78662         9.87374         0.80338
C          9.84813        12.77787         0.57971
C          8.65829        14.87722        -0.10919
C          8.61773        16.35702         0.15615
C          9.86702        14.17732         0.44982
C          9.83141        17.06055         0.34049
C          8.60134        19.18898         0.17241
C          9.82921        18.51146         0.33169
C         11.16055         1.98052         0.26497
C         11.15634         3.48868         0.11024
C         12.32052         1.30958        -0.47493
C         12.32175         4.21561        -0.08827
C         11.09062         6.35391         0.23847
C         11.07149         7.77956         0.40121
C         12.31653         5.66319         0.03958
C         12.32458         8.50274         0.41205
C         11.10886        10.62840         0.89450
C         11.08172        12.08664         0.73177
C         12.34486         9.90063         0.58534
C         12.31322        12.77927         0.73302
C         11.07044        14.91778         0.64915
C         11.03307        16.35053         0.60684
C         12.30937        14.21463         0.78921
C         12.22306        17.12468         0.94454
C         11.04590        19.22861         0.42322
C         12.27038        18.57489         0.66201
C         13.59732         2.10500        -0.45932
C         13.57663         3.53084        -0.34706
C         14.78643         1.43233        -0.63885
C         14.77662         4.26410        -0.51780
C         13.54835         6.39057        -0.04321
C         13.55366         7.80185         0.15167
C         14.77750         5.71462        -0.37074
C         14.78270         8.53494         0.06410
C         13.55933        10.64714         0.50742
C         13.54374        12.04668         0.68101
C         14.79714         9.94510         0.25396
C         14.84177        12.76203         0.92468
C         13.55768        14.91541         0.80864
C         13.56908        16.36948         1.00909
C         14.78138        14.24795         0.67605
C         14.78927        17.12357         0.74307
C         13.50287        19.24328         0.67685
C         14.75576        18.55598         0.69886
C         16.02048         2.13743        -0.76530
C         15.97784         3.57025        -0.81797
C         17.23239         1.42846        -0.76071
C         17.19308         4.30023        -1.15806
C         15.96437         6.44809        -0.53120
C         15.99371         7.85295        -0.29496
C         17.17592         5.82008        -1.19904
C         17.20092         8.60903        -0.45452
C         16.01151        10.68087         0.09904
C         16.03623        12.09059         0.30915
C         17.20431         9.98712        -0.27462
C         17.23006        12.83705         0.19157
C         15.99701        14.97447         0.54973
C         15.99220        16.41623         0.54398
C         17.22640        14.27348         0.37662
C         17.21859        17.13720         0.42357
C         15.97381        19.25749         0.56064
C         17.21147        18.57666         0.45118
C         18.49641         2.08290        -0.73421
C         18.53533         3.55264        -0.98772
C         19.68420         1.40587        -0.60081
C         19.68172         4.31949        -0.52754
C         18.47757         6.45888        -0.76073
C         18.49889         7.95268        -0.90844
C         19.64286         5.74093        -0.43018
C         19.70667         8.62044        -0.29640
C         18.46629        10.76531        -0.59017
C         18.45918        12.17559        -0.06705
C         19.70852         9.99834        -0.18551
C         19.67737        12.86078         0.05654
C         18.44126        14.99531         0.28586
C         18.44429        16.43202         0.32657
C         19.67829        14.29170         0.19173
C         19.67361        17.14624         0.26622
C         18.43959        19.27361         0.35891
C         19.67406        18.58755         0.27562
C         20.95524         2.19893        -0.72059
C         20.81255         3.50310         0.07149
C         22.20888         1.45193        -0.38509
C         22.11251         4.26092         0.15004
C         20.83421         6.45213         0.01537
C         20.86920         7.85134         0.05911
C         21.99287         5.68665         0.61397
C         22.06873         8.55888         0.46519
C         20.91030        10.70553         0.14680
C         20.92073        12.13881         0.11222
C         22.09072         9.97759         0.45612
C         22.14001        12.85177         0.22495
C         20.90083        15.00126         0.20006
C         20.90489        16.43657         0.21937
C         22.13661        14.28283         0.20982
C         22.13468        17.14629         0.18742
C         20.90927        19.27814         0.21104
C         22.14174        18.58657         0.16989
C         23.36324         2.14552        -0.08693
C         23.31383         3.60023         0.14251
C         24.61467         1.46796        -0.00433
C         24.55975         4.30856         0.40633
C         23.29780         6.43765         0.60160
C         23.27553         7.82348         0.70593
C         24.53756         5.70825         0.62766
C         24.49582         8.54840         1.23002
C         23.35416        10.69375         0.62214
C         23.37756        12.14841         0.42391
C         24.51911        10.00963         0.87202
C         24.57016        12.86194         0.51335
C         23.35802        15.00012         0.24074
C         23.36692        16.43003         0.19202
C         24.59255        14.28486         0.33417
C         24.60024        17.13158         0.16768
C         23.38503        19.26782         0.11808
C         24.61259        18.56983         0.10893
C         25.81774         2.14401         0.23505
C         25.79179         3.59248         0.45788
C         27.04247         1.44017         0.20525
C         26.99814         4.27464         0.66511
C         25.77896         6.42291         0.76741
C         25.79823         7.83272         0.95471
C         27.00857         5.70438         0.73906
C         27.01447         8.51314         1.06842
C         25.85278        10.70177         0.71553
C         25.79581        12.19027         1.09646
C         27.03629         9.98947         1.39132
C         27.09994        12.84553         0.71328
C         25.81070        14.98678         0.26039
C         25.83101        16.40564         0.16951
C         27.08508        14.21191         0.07646
C         27.06829        17.11609         0.10121
C         25.86193        19.24632         0.05182
C         27.08475        18.54724         0.05141
C         28.27548         2.06472         0.52802
C         28.24026         3.49763         1.02400
C         29.48513         1.40045         0.57369
C         29.50566         4.21538         0.60453
C         28.23419         6.42998         0.82473
C         28.24274         7.81217         0.99603
C         29.50602         5.71402         0.61537
C         29.52981         8.54512         1.31680
C         28.32477        10.69238         0.98898
C         28.29461        12.12743         0.76693
C         29.51496        10.00027         0.90588
C         29.54727        12.80394         0.55320
C         28.30799        15.02027         0.36352
C         28.30803        16.38935         0.19130
C         29.59353        14.30756         0.70809
C         29.57791        17.12103         0.14759
C         28.34178        19.24257         0.01212
C         29.57117        18.57944         0.04988
C         30.68652         2.05565         1.22900
C         30.77003         3.52495         0.87138
C         31.99388         1.34784         0.97579
C         31.94808         4.22869         0.89445
C         30.78342         6.41427         0.79665
C         30.78902         7.82049         0.90269
C         31.98588         5.67526         0.78298
C         31.99652         8.52702         0.71852
C         30.76030        10.67090         0.62264
C         30.74491        12.09878         0.45393
C         31.98641         9.96417         0.58019
C         32.00278        12.79930         0.22559
C         30.71451        14.92121        -0.10902
C         30.75203        16.42086         0.08697
C         32.02274        14.19395         0.06382
C         32.03999        17.13107         0.11715
C         30.81342        19.26750        -0.10232
C         32.04765        18.59400        -0.12170
C         33.19300         2.01571         0.95427
C         33.20283         3.49028         1.15360
C         34.45499         1.35501         0.75845
C         34.50097         4.24209         0.98395
C         33.23059         6.38272         0.71783
C         33.22574         7.80760         0.58289
C         34.46214         5.68134         0.67387
C         34.45088         8.50548         0.36536
C         33.22461        10.64886         0.32564
C         33.22346        12.06724         0.15489
C         34.44971         9.93323         0.22403
C         34.43787        12.74507        -0.17245
C         33.23661        14.86636        -0.19921
C         33.29855        16.34385        -0.08530
C         34.42078        14.15037        -0.38339
C         34.53092        17.04555        -0.49251
C         33.29421        19.22057        -0.30723
C         34.52199        18.50484        -0.45226
C         35.66254         2.03624         0.59070
C         35.70839         3.48467         0.62559
C         36.88839         1.31904         0.34189
C         36.85870         4.18552         0.30277
C         35.67153         6.36072         0.40315
C         35.67416         7.78423         0.27056
C         36.89770         5.62539         0.28098
C         36.91795         8.47591         0.12652
C         35.68303        10.62453        -0.03228
C         35.67078        12.02548        -0.24898
C         36.92724         9.89884        -0.03052
C         36.89409        12.75378        -0.53419
C         35.60305        14.83356        -1.01579
C         35.66233        16.32731        -0.79660
C         36.89864        14.10092        -0.77541
C         36.94076        16.99439        -0.94162
C         35.73087        19.17328        -0.66128
C         36.95547        18.47038        -0.90382
C         38.06245         1.96861         0.00872
C         38.04902         3.43841        -0.13940
C         39.31711         1.29121        -0.16220
C         39.34930         4.17189        -0.24555
C         38.12140         6.33292         0.14652
C         38.13177         7.73194         0.12269
C         39.43379         5.58935         0.28173
C         39.44793         8.44931         0.27846
C         38.16681        10.58116        -0.20994
C         38.17127        11.98000        -0.78161
C         39.38335         9.90991        -0.09383
C         39.40283        12.79345        -0.45157
C         38.15551        14.79197        -1.26677
C         38.11666        16.28571        -1.02696
C         39.42394        14.13575        -0.75170
C         39.39729        17.06477        -0.82048
C         38.11701        19.14588        -1.21208
C         39.34892        18.37209        -1.61293
C         40.51304         1.96298        -0.30447
C         40.60245         3.38839        -0.29236
C         41.78164         4.10800        -0.45814
C         40.64374         6.29922        -0.30033
C         40.63473         7.72759        -0.34678
C         41.77422         5.52187        -0.55927
C         41.73702         8.48554        -0.73115
C         40.62195        10.60729        -0.24904
C         40.62111        12.08711         0.08954
C         41.76662         9.89174        -0.57609
C         41.88883        12.82328        -0.22887
C         40.66358        14.87735        -0.77079
C         40.67883        16.28242        -1.01819
C         41.88414        14.13282        -0.58471
C         41.84020        17.02347        -1.20512
C         40.63956        19.13515        -1.47138
C         41.80757        18.45191        -1.33647
O          3.48977         2.44417         0.57458
O         17.95201         3.82364        -2.31839
O         38.54121         3.96599        -1.44109
O         29.46923         4.93515        -0.66227
O         33.94794         3.92783         2.32649
O         28.20844         3.46692         2.45252
O         10.40154        10.17868         2.10818
O         32.87558        16.74707         1.28088
O          9.20151         3.63452         1.60791
O         12.84317        16.77117         2.22216
O         11.94944         1.10493        -1.85510
H         12.01836         1.96259        -2.32259
O         39.20298        18.02994        -3.02542
H         39.20436        18.86355        -3.53981
O         39.68415         5.48510         1.71574
H         39.74315         6.41088         2.05737
O         29.87267        14.56787         2.11067
H         29.13150        14.20926         2.64192
O         38.16212        14.58963        -2.72645
H         37.28029        14.90183        -3.04754
O         39.72204         8.39946         1.73768
H         40.40170         9.08381         1.92572
O         24.34578         8.50731         2.70011
H         23.56433         9.05319         2.93167
O         27.16363        13.94416        -1.38959
H         28.11872        13.89719        -1.62584
O          3.93503         6.81156        -2.05004
H          3.95010         6.01524        -2.62049
O          4.63336         9.81253         2.02295
H          5.49184         9.53904         2.41412
O         21.63932         5.57160         2.07136
H         22.47709         5.39985         2.55561
O         29.55273         8.58180         2.79931
H         30.44054         8.89703         3.07449
O         35.38061        14.69471        -2.48810
H         35.25481        13.73670        -2.66618
O         38.21816        11.79077        -2.24007
H         38.27814        12.69695        -2.64162
O         26.15903        10.62595        -0.70457
H         25.49949        11.16561        -1.19036
O         18.61347         8.22563        -2.36038
H         17.93743         7.63365        -2.79076
O         11.32773         1.71939         1.68921
H         10.60359         2.21120         2.14469
O          3.41426         7.29303         1.54620
H          3.53788         8.11730         2.07493
O         39.40951        17.45752         0.58829
H         39.42074        16.64147         1.13024
O          8.84132        14.77026        -1.58478
H          8.07779        15.22608        -2.00044
O         21.09217         2.61270        -2.12218
H         21.05205         1.80858        -2.68069
O         40.50016        12.09747         1.57005
H         40.57045        13.03217         1.85944
O         30.41107         1.98445         2.66220
H         29.56363         2.52113         2.81184
O         15.06892        12.65421         2.39326
H         14.30893        13.09036         2.83619
O         26.94557        10.08639         2.84060
H         27.67772         9.53342         3.20503
O         18.50519        10.91752        -2.04734
H         18.56390         9.99756        -2.42322
O         16.98823         6.16118        -2.63019
H         17.46518         5.45243        -3.12803
O         25.62675        12.35743         2.53230
H         26.13071        11.63458         2.98443
O         30.32714        14.69871        -1.50947
H         31.04541        15.03716        -2.08483
O         20.42746         3.17851         1.43625
H         20.61484         3.98545         1.97922
H          0.52618         1.55897        -2.00380
H          0.38352         3.94445        -1.44961
H          2.65183         0.30818        -1.83195
H          0.27427         5.81826        -0.72995
H          0.29862         8.26586        -0.76272
H          0.30823        10.13987        -0.76699
H          0.31375        12.56585        -0.75659
H          0.28314        14.45124        -0.53464
H          0.32739        16.90686        -0.56945
H          1.56408        19.03401        -0.49613
H          5.15470         0.32645        -1.34565
H          3.70441        20.27458        -0.31322
H          7.49881         0.31325        -0.89120
H          6.14352        20.27534        -0.06747
H          9.90516         0.28789        -0.49531
H          8.59373        20.28877         0.14824
H         12.49096         0.29720        -0.03435
H         11.03229        20.32224         0.30335
H         14.79457         0.33324        -0.67532
H         13.51237        20.33628         0.54878
H         17.20536         0.33025        -0.70723
H         15.96190        20.35736         0.53597
H         19.70279         0.31336        -0.47078
H         18.43548        20.37381         0.37350
H         22.25193         0.36426        -0.55491
H         20.90917        20.37842         0.20834
H         24.63458         0.38144        -0.18093
H         23.39173        20.36775         0.08846
H         27.02601         0.36107        -0.01901
H         25.87109        20.34612         0.01762
H         29.53905         0.33289         0.30194
H         28.32631        20.34024        -0.06793
H         31.98167         0.25098         0.87328
H         30.79624        20.35890        -0.24521
H         34.45533         0.25652         0.68508
H         33.32769        20.31832        -0.38525
H         36.87912         0.22176         0.42901
H         35.74812        20.27379        -0.66390
H         39.31750         0.19124        -0.13686
H         38.11158        20.24471        -1.29094
H         41.44414         1.38493        -0.40481
H         42.73413         3.57240        -0.58485
H         42.71477         6.01368        -0.84794
H         42.63765         7.98833        -1.11839
H         42.71460        10.41430        -0.76336
H         42.84870        12.31900        -0.04636
H         42.84537        14.64781        -0.72334
H         42.82084        16.52914        -1.25018
H         40.63794        20.22848        -1.60098
H         42.76607        18.99244        -1.33776
