         470
 CSIRO Nanostructure Databank - Neutral Graphene Oxide Data Set
C         38.97834        50.94234         5.68270
C         38.83157        51.51400         6.94790
C         40.02092        53.48468         6.19771
C         39.35601        52.78561         7.20230
C         40.93906        48.96682         3.29655
C         40.90549        50.34364         3.13040
C         39.64880        51.64251         4.67297
C         40.89485        53.66931         3.86344
C         40.17681        52.93903         4.90464
C         41.63562        54.81507         4.01547
C         43.23540        48.88576         2.45320
C         42.10003        48.24782         2.94583
C         43.21245        50.30159         2.27416
C         42.03510        51.03870         2.60755
C         43.16710        53.16238         2.00054
C         42.03257        52.44851         2.40040
C         43.22884        54.61927         2.06834
C         42.51760        55.34218         3.01662
C         45.97232        46.30360         2.75968
C         44.76225        46.87881         2.81817
C         45.62739        48.88721         1.60661
C         44.40444        48.05756         1.94291
C         45.52970        50.25302         1.40794
C         44.33579        51.00539         1.72312
C         45.44036        53.12291         1.00154
C         44.31772        52.41382         1.58789
C         45.42315        54.54776         0.86011
C         44.30016        55.29624         1.32978
C         45.38936        57.34028         0.57045
C         44.28318        56.68013         1.12034
C         48.16009        44.55974         1.49776
C         48.21979        46.01860         1.36078
C         47.07295        46.87690         1.95372
C         47.82059        48.70634         0.45645
C         46.85531        48.17961         1.32567
C         47.77580        50.15855         0.22742
C         46.68488        50.98023         0.86327
C         47.60986        53.06055        -0.14365
C         46.53194        52.40375         0.49970
C         47.68445        54.45867        -0.17012
C         46.56631        55.22159         0.32275
C         47.79880        57.35842        -0.13851
C         46.54452        56.64280         0.21486
C         47.78764        58.76791        -0.53860
C         49.91720        44.30654        -0.18878
C         48.94010        43.76298         0.72848
C         49.90499        45.69982        -0.46654
C         48.97955        46.57109         0.22050
C         49.48250        48.42832        -1.44199
C         48.85983        47.91083        -0.13883
C         49.62121        49.95030        -1.51184
C         48.51366        50.76682        -0.91380
C         49.79884        52.91611        -1.43105
C         48.55535        52.26430        -0.96277
C         49.86142        54.37054        -1.37966
C         48.85789        55.08992        -0.75777
C         50.14236        57.24436        -1.23729
C         49.01154        56.54845        -0.57811
C         50.14895        58.68258        -1.21811
C         48.93001        59.38589        -0.96598
C         52.19377        41.36446        -0.81912
C         51.07468        42.06644        -0.41151
C         51.99776        44.04903        -1.46834
C         50.95943        43.45143        -0.69824
C         51.72928        45.35819        -1.95826
C         50.81741        46.24910        -1.42569
C         52.12612        48.48397        -1.88497
C         50.78261        47.68709        -2.00487
C         52.16523        49.88689        -1.78867
C         50.89980        50.67163        -1.81975
C         52.19766        52.81315        -2.01679
C         50.91219        52.15558        -1.69819
C         52.26136        54.28224        -2.23577
C         50.95440        55.07636        -2.18085
C         52.29943        57.25760        -2.51591
C         51.17889        56.52362        -1.80024
C         52.50667        58.66500        -1.98298
C         51.36181        59.38272        -1.54312
C         52.62853        61.45878        -1.59752
C         51.45830        60.78346        -1.32816
C         54.74958        39.83219        -1.22585
C         54.56141        41.23243        -1.69446
C         53.32621        42.01523        -1.37134
C         54.54488        44.18865        -1.69948
C         53.25326        43.38709        -1.69297
C         54.65047        45.66583        -1.90407
C         53.56046        46.44095        -2.28381
C         54.60905        48.48594        -1.58899
C         53.40132        47.81416        -1.94729
C         54.60661        49.91186        -1.52017
C         53.40050        50.60183        -1.66994
C         54.67977        52.78859        -1.97190
C         53.41341        52.11027        -1.43428
C         54.72914        54.27402        -2.07737
C         53.57609        54.99428        -2.16510
C         54.91533        57.11856        -2.27622
C         53.62906        56.41869        -2.70292
C         54.96852        58.56292        -2.26382
C         53.74033        59.33451        -2.12511
C         55.01401        61.47981        -2.28606
C         53.79315        60.76113        -1.99359
C         55.12192        62.86458        -2.31285
C         57.05475        39.76931        -2.14386
C         55.92092        39.18104        -1.33410
C         57.14952        41.27795        -1.93407
C         55.83545        41.99833        -1.94020
C         57.15160        44.13184        -1.40099
C         55.84172        43.43988        -1.56221
C         57.12055        45.60559        -1.46303
C         55.83978        46.35588        -1.52761
C         56.95903        48.45413        -0.69059
C         55.81617        47.74617        -1.39180
C         56.99994        49.93397        -0.98107
C         55.87718        50.61502        -1.34343
C         57.19887        52.82081        -1.54980
C         55.95513        52.04416        -1.74440
C         57.29385        54.16012        -1.86375
C         56.08053        54.87189        -2.49450
C         57.37125        57.06114        -2.39812
C         56.08136        56.37933        -2.28805
C         57.43900        58.51375        -2.27362
C         56.20034        59.22674        -2.27582
C         57.54776        61.40088        -2.54944
C         56.21684        60.68115        -2.53487
C         57.57562        62.87090        -2.45238
C         56.36665        63.54116        -2.43675
C         59.96766        37.46984        -2.89287
C         58.64161        37.94469        -2.65125
C         59.49238        39.70151        -1.14808
C         58.41318        39.10523        -1.95951
C         59.44715        41.15614        -0.75928
C         58.35085        41.97175        -1.37951
C         59.54589        44.09260        -0.67801
C         58.30296        43.43974        -1.10236
C         59.47585        45.57382        -0.47307
C         58.38181        46.33243        -1.15837
C         59.53765        48.53973        -0.46529
C         58.32579        47.82393        -0.96075
C         59.41423        49.96885        -0.04391
C         58.19968        50.68756        -0.53515
C         59.68212        52.78538        -0.88953
C         58.38308        52.06436        -1.09266
C         59.69850        54.24481        -1.11737
C         58.55935        54.85483        -1.66052
C         59.86865        57.02679        -1.69135
C         58.69038        56.25293        -2.08671
C         59.87970        58.42557        -1.87174
C         58.69378        59.15198        -2.15652
C         59.99218        61.40003        -1.85817
C         58.71974        60.63530        -2.04947
C         60.07373        62.81816        -2.26405
C         58.87958        63.52564        -2.56023
C         60.20783        65.33716        -3.46240
C         58.96746        64.82404        -3.10780
C         63.44860        35.95158        -2.66365
C         63.20060        37.24171        -2.16759
C         61.03398        38.08860        -2.30093
C         62.10998        39.80904        -0.73128
C         60.90065        39.06449        -1.22004
C         61.99898        41.11562        -0.33888
C         60.70796        41.88149        -0.35882
C         61.89646        44.08482         0.17271
C         60.69301        43.38712        -0.36940
C         61.92614        45.58785         0.30593
C         60.67702        46.35399         0.01428
C         61.95474        48.51662         0.21148
C         60.77188        47.81591        -0.13114
C         61.96354        49.92521         0.33341
C         60.70917        50.69201         0.22847
C         62.11692        52.82088        -0.18339
C         60.79069        52.16758        -0.08813
C         62.14346        54.20757        -0.49913
C         60.94349        54.94147        -0.91483
C         62.20681        57.09182        -0.86366
C         61.00714        56.33006        -1.17138
C         62.30555        58.43592        -1.12912
C         61.18082        59.14262        -1.76812
C         62.50079        61.39359        -1.54486
C         61.26727        60.63396        -1.89241
C         62.58369        62.77861        -1.88049
C         61.35880        63.40759        -2.43180
C         63.30040        65.72477        -2.62713
C         61.37086        64.62151        -3.14819
C         63.40062        67.11842        -2.68913
C         64.85519        35.61055        -0.75895
C         64.20549        35.08797        -1.88050
C         64.86171        36.98435        -0.42108
C         63.82086        37.76702        -1.02845
C         64.51105        39.76400         0.16038
C         63.29443        38.95838        -0.21960
C         64.51391        41.11601         0.12160
C         63.21504        41.83502         0.12188
C         64.48194        44.08052         0.06538
C         63.19756        43.32245         0.26445
C         64.47097        45.61238         0.15203
C         63.19629        46.36065         0.28035
C         64.47190        48.45544         0.57370
C         63.19084        47.72910         0.33863
C         64.46604        49.93758         0.78207
C         63.15897        50.72966         0.83126
C         64.52591        52.78884         0.21367
C         63.27332        52.12130         0.20415
C         64.56126        54.20000         0.01833
C         63.36379        54.89242        -0.29203
C         64.66732        57.09002        -0.12275
C         63.33899        56.36306        -0.24488
C         64.71837        58.51657        -0.45258
C         63.41647        59.26554        -0.50892
C         64.78037        61.36798        -0.71840
C         63.58008        60.68041        -1.02218
C         64.82836        62.78765        -0.85483
C         63.76755        63.49797        -1.50319
C         64.92759        65.63822        -0.85618
C         63.96313        64.94431        -1.65754
C         64.98955        67.06421        -0.86148
C         64.19398        67.78967        -1.76803
C         68.65076        33.37684        -1.02354
C         67.28629        33.52219        -0.82895
C         67.62074        35.70146         0.30431
C         66.79943        34.65546        -0.16026
C         67.11693        36.99546         0.80081
C         65.87074        37.57185         0.47178
C         66.67995        39.82278         1.52985
C         65.60767        38.99356         0.83400
C         66.78616        41.27304         1.22407
C         65.81338        41.87308         0.24196
C         66.94197        44.06525         0.52743
C         65.73156        43.37583         0.37144
C         66.96705        45.54290         0.30273
C         65.72214        46.29749         0.38967
C         66.98144        48.47704         0.74020
C         65.76750        47.78897         0.13541
C         66.96008        49.93069         0.81039
C         65.75048        50.66520         0.61862
C         67.01641        52.76413         0.42701
C         65.76375        52.05791         0.43895
C         67.05981        54.16956         0.23463
C         65.83216        54.91500         0.06119
C         67.18644        57.00416        -0.38882
C         65.88782        56.29150        -0.11383
C         67.14326        58.47627        -0.05139
C         65.93019        59.19746        -0.29244
C         67.09736        61.31992         0.13720
C         65.93797        60.63839        -0.28494
C         67.06276        62.75147         0.23964
C         65.94921        63.47887        -0.26633
C         66.95389        65.56872         0.58802
C         65.93239        64.89737        -0.14570
C         66.91902        67.01579         0.71332
C         65.92945        67.75536         0.01057
C         66.83546        69.82866         0.92930
C         65.90426        69.15933         0.14506
C         71.55540        33.14664        -1.37005
C         70.97827        34.06285        -0.46354
C         69.54164        34.29161        -0.42165
C         69.89755        36.12507         1.18822
C         69.02308        35.41017         0.29104
C         69.35829        37.17335         1.95267
C         68.09077        37.76292         1.59201
C         68.93615        39.88909         2.61504
C         67.89341        39.10388         1.93424
C         68.99199        41.40910         2.34436
C         67.93467        42.00370         1.48650
C         69.39226        44.02366         1.15962
C         68.08075        43.36264         1.02692
C         69.49209        45.56485         0.92486
C         68.25855        46.33196         0.55710
C         69.32064        48.41241         1.54885
C         68.13712        47.75453         0.96392
C         69.35669        49.96173         1.47176
C         68.17171        50.65116         0.94360
C         69.47366        52.75330         0.75972
C         68.22425        52.04571         0.70007
C         69.50702        54.12834         0.60351
C         68.30725        54.87422         0.33686
C         69.55125        57.01627         0.53027
C         68.36333        56.28143         0.20329
C         69.52166        58.44586         0.63667
C         68.29711        59.16538         0.35947
C         69.40695        61.29595         1.01548
C         68.26565        60.59070         0.51295
C         69.32640        62.70124         1.26634
C         68.13792        63.43090         0.87747
C         69.04894        65.46477         1.97109
C         68.02667        64.81845         1.12821
C         68.98398        66.98619         2.15844
C         67.89403        67.71888         1.46814
C         68.88466        69.76862         2.49654
C         67.85279        69.11923         1.58635
C         68.88941        71.28083         2.49879
C         73.75940        33.58139        -0.46608
C         72.92354        32.91112        -1.37647
C         73.22062        34.48484         0.43406
C         71.82584        34.75284         0.45336
C         71.99175        36.21010         2.48968
C         71.24958        35.70140         1.36522
C         71.45744        37.10813         3.35081
C         70.10195        37.72211         3.15038
C         71.28523        39.96877         3.33454
C         70.17304        39.22863         3.04076
C         71.35232        41.36444         3.05437
C         70.30939        42.05781         2.46656
C         71.63081        44.12774         2.18525
C         70.47189        43.40302         1.95045
C         71.71161        45.52341         1.98399
C         70.63348        46.26683         1.53331
C         71.76649        48.45060         1.82998
C         70.61467        47.71418         1.63040
C         71.79616        49.86792         1.68746
C         70.66937        50.60055         1.41794
C         71.71818        52.84393         1.79061
C         70.79806        52.01760         0.91198
C         71.74767        54.17130         1.64868
C         70.85152        54.83145         0.62440
C         71.91866        57.05382         1.10571
C         70.75932        56.32763         0.80475
C         71.88100        58.43606         1.24837
C         70.67938        59.15226         1.05197
C         71.70778        61.29613         1.82030
C         70.61225        60.58571         1.29040
C         71.61947        62.65252         2.09398
C         70.43867        63.38062         1.83658
C         71.39628        65.53086         2.67755
C         70.34428        64.79604         2.16760
C         71.35610        66.95553         2.77759
C         70.24704        67.68679         2.43898
C         71.39437        69.94909         2.80190
C         70.26760        69.18121         2.15317
C         71.26654        71.26621         3.05279
C         70.01009        71.96052         2.80911
O         59.56742        45.98038         0.92538
O         60.49921        51.72811         1.26028
O         58.39163        50.39597         0.91390
O         58.09971        46.00208        -2.53954
O         61.49030        59.80518        -3.08124
O         62.28744        38.00215        -2.91760
O         67.82832        46.04764        -0.81385
O         40.81217        53.13205         2.55813
O         69.05534        49.24386         2.71523
O         68.51472        66.07571         3.19670
O         48.87302        57.00159         0.81091
O         59.13098        61.10547        -0.70579
O         68.44414        40.87478         3.58149
O         59.18304        48.48234        -1.93010
O         63.14636        42.48557         1.45884
O         55.33553        52.17100        -3.09637
O         55.00189        41.59111        -3.05951
O         47.73917        51.46482        -1.93141
O         58.23187        56.51318        -3.43667
O         62.57677        65.11360        -3.65853
O         69.87930        44.60961        -0.09624
O         61.72912        44.74785         1.48290
O         48.37373        46.75911         2.61091
O         49.93737        50.30375        -2.88856
O         55.09413        43.80850        -0.34226
O         65.43487        34.68348         0.12438
O         52.27746        53.32611        -3.38454
O         59.97589        38.77071        -0.13461
O         63.77343        56.86373         1.06471
O         47.99630        50.82392         1.53112
O         39.70679        51.03473         3.40111
O         64.48226        44.84849        -1.17682
O         65.50542        39.31064         2.26560
O         59.70860        41.40125         0.63886
O         64.54099        48.99659         1.93054
O         58.18942        41.78851        -2.84452
O         52.55251        45.79497        -2.99761
O         53.38228        52.34048        -0.04987
O         59.44322        52.03528        -2.13141
O         56.94876        60.94717        -3.79617
O         69.29291        37.42659         4.33073
H         69.09569        36.46680         4.32998
O         66.43456        41.65739        -1.09523
H         67.17831        42.29290        -1.18643
O         48.41498        48.14668        -2.40052
H         48.44099        48.85909        -3.07894
O         71.47815        54.62528        -0.69518
H         70.86876        54.99585        -1.36862
O         53.82826        56.23281        -4.13473
H         53.20698        56.85817        -4.58986
O         43.95858        47.47874         0.66737
H         43.68875        48.21868         0.08339
O         56.18206        54.64977        -3.91822
H         55.40022        55.08429        -4.33596
O         62.75805        38.33130         0.97409
H         62.48652        39.03472         1.60163
O         50.60207        47.54778        -3.42081
H         49.67457        47.25245        -3.56435
O         51.73727        57.49182        -3.85513
H         51.14547        56.71500        -4.05134
O         65.84835        47.94828        -1.31155
H         66.57717        47.35535        -1.61917
O         62.90235        50.99995         2.23607
H         63.16354        50.19039         2.73253
O         56.69206        48.26255         0.72790
H         57.16125        48.98163         1.21908
O         70.43098        69.31913         0.71049
H         71.35851        69.09651         0.48671
O         56.67583        39.58411        -3.52952
H         57.10511        40.29677        -4.05030
O         50.44428        55.12941        -3.56041
H         50.79499        54.31210        -4.00013
O         62.98429        59.45310         0.89024
H         63.10618        58.57755         1.33934
O         68.59143        69.34861         3.85471
H         67.67831        69.62528         4.07501
O         71.40051        51.90753        -0.40734
H         71.58492        52.83139        -0.71885
O         67.37622        56.94047        -1.86916
H         68.17110        57.47532        -2.08073
H         38.56953        49.94589         5.46910
H         38.30335        50.96666         7.74043
H         40.41906        54.48602         6.41392
H         39.24245        53.23782         8.19659
H         40.05824        48.43648         3.68095
H         41.58307        55.36756         4.96524
H         42.09018        47.15394         3.04934
H         42.79530        56.39923         3.15132
H         46.20583        45.43948         3.39901
H         43.98712        46.44944         3.47021
H         45.35049        58.43353         0.46798
H         43.40656        57.27425         1.41234
H         47.49555        44.12374         2.25586
H         46.84934        59.33789        -0.49409
H         48.88377        42.67422         0.86147
H         48.88297        60.45914        -1.19679
H         52.23547        40.28565        -0.61745
H         50.27756        41.53296         0.12247
H         52.66154        62.54756        -1.46074
H         50.59189        61.34573        -0.95718
H         53.92482        39.35488        -0.67719
H         54.22392        63.48586        -2.19107
H         56.02809        38.16438        -0.92877
H         56.35063        64.64028        -2.42220
H         60.13836        36.74665        -3.70081
H         57.81221        37.49400        -3.21371
H         60.29021        66.29048        -3.99984
H         58.05498        65.38315        -3.35321
H         62.93496        35.60779        -3.56985
H         62.85558        67.66470        -3.46925
H         64.28703        34.01932        -2.11491
H         64.24967        68.88438        -1.81351
H         69.02993        32.49588        -1.55713
H         66.57928        32.76086        -1.18210
H         66.77264        70.92207         1.01312
H         65.13047        69.75039        -0.36197
H         70.92312        32.62220        -2.09929
H         67.93777        71.82189         2.38466
H         74.84196        33.39471        -0.47650
H         73.35477        32.20275        -2.09702
H         73.89065        35.01751         1.12233
H         72.99153        35.80194         2.69469
H         72.01231        37.39689         4.25508
H         72.19486        39.47633         3.70560
H         72.32200        41.85472         3.21028
H         72.48084        43.65115         2.69050
H         72.61115        46.03424         2.35213
H         72.73097        47.93657         1.93922
H         72.77990        50.35767         1.66134
H         72.36411        52.34165         2.52605
H         72.40928        54.79019         2.27213
H         72.87374        56.52836         1.24165
H         72.80720        58.96159         1.51359
H         72.64883        60.77910         2.04793
H         72.49228        63.15687         2.52891
H         72.35547        65.04372         2.90029
H         72.29616        67.46340         3.03773
H         72.36282        69.45186         2.96300
H         72.11288        71.84409         3.45208
H         69.99341        73.05637         2.90122
