         404
 CSIRO Nanostructure Databank - Neutral Graphene Oxide Data Set
C          1.14048         2.12377        -1.23414
C          1.05585         3.48950        -1.14182
C          2.38227         1.43080        -1.25003
C          2.25585         4.32862        -1.22868
C          1.03651         6.50414        -0.85449
C          1.02803         7.87086        -0.62932
C          2.24026         5.76791        -0.85648
C          2.22734         8.58902        -0.39466
C          1.02638        10.80340        -0.21155
C          1.04333        12.17556        -0.03767
C          2.21895        10.03031        -0.19345
C          2.25185        12.88929         0.18554
C          1.10450        15.13605         0.40233
C          1.16004        16.52621         0.58919
C          2.27809        14.32945         0.42218
C          2.35544        17.19380         0.85352
C          2.44878        18.61817         1.02517
C          3.59344         2.10742        -1.10393
C          3.59727         3.58329        -1.16702
C          4.83059         1.43310        -0.93754
C          4.76489         4.30554        -0.62959
C          3.45379         6.43745        -0.57669
C          3.45019         7.85624        -0.35362
C          4.68159         5.67570        -0.40862
C          4.68802         8.56875        -0.14232
C          3.44589        10.71858         0.00437
C          3.46171        12.14721         0.20935
C          4.66553         9.96997        -0.02456
C          4.69934        12.82408         0.49675
C          3.51241        14.96500         0.68745
C          3.58131        16.38724         1.18129
C          4.71999        14.23603         0.74338
C          4.89695        17.07775         0.88960
C          3.64712        19.25133         0.91958
C          4.84593        18.50039         0.40259
C          6.03881         2.12488        -0.74411
C          6.01217         3.57380        -0.51863
C          7.26959         1.43619        -0.61910
C          7.20068         4.22801        -0.24848
C          5.83853         6.36766         0.17147
C          5.91521         7.83171         0.08702
C          7.17851         5.59266         0.25261
C          7.13261         8.45140         0.36070
C          5.93496        10.70260         0.01205
C          5.92044        12.10560         0.47254
C          7.22204         9.90935         0.16945
C          7.08631        12.72721         0.93555
C          5.94003        14.90792         1.11485
C          6.08711        16.37909         1.02576
C          7.00681        14.05653         1.38673
C          7.36788        17.08808         0.83778
C          6.14013        19.22239         0.56887
C          7.34573        18.52703         0.62286
C          8.50806         2.10468        -0.46966
C          8.52106         3.60892        -0.63670
C          9.71471         1.42631        -0.33441
C          9.73877         4.28299        -0.04384
C          8.42805         6.35028         0.38999
C          8.34235         7.70650         0.66090
C          9.70270         5.65795         0.31572
C          9.54635         8.42599         1.13878
C          8.39571        10.61464         0.71991
C          8.40918        12.10811         0.60365
C          9.39736         9.88426         1.24821
C          9.69979        12.86480         0.35375
C          8.90747        15.12083         1.04859
C          8.65775        16.48259         0.72743
C          9.88716        14.34399         0.45222
C          9.81016        17.16715         0.21987
C          8.57592        19.25100         0.43754
C          9.79683        18.61427         0.17804
C         10.97507         2.11267        -0.22344
C         10.95107         3.57163        -0.01089
C         12.16999         1.42690        -0.27081
C         12.14801         4.24438         0.33585
C         10.91844         6.34687         0.57460
C         10.92975         7.78231         1.00230
C         12.13048         5.62736         0.58741
C         12.21496         8.54352         0.71748
C         11.27544        10.84042         0.71670
C         10.97457        12.10792         0.05746
C         12.22972         9.95246         0.30266
C         12.15546        12.81660        -0.57352
C         10.98180        15.01567        -0.18713
C         10.95774        16.43928        -0.17492
C         12.18768        14.29376        -0.53465
C         12.13773        17.18126        -0.64541
C         11.01900        19.31268        -0.05100
C         12.21649        18.63395        -0.36683
C         13.48214         2.16555        -0.32030
C         13.39520         3.44741         0.48438
C         14.70804         1.36221         0.02450
C         14.68725         4.11922         0.85920
C         13.38128         6.36634         0.90303
C         13.37138         7.81821         0.57839
C         14.68417         5.61483         1.00407
C         14.62935         8.42872         0.07914
C         13.41526        10.53929        -0.39385
C         13.44072        12.04926        -0.67930
C         14.69855         9.88770        -0.13649
C         14.70866        12.76967        -0.55550
C         13.42366        14.92971        -0.62520
C         13.45166        16.39205        -0.80618
C         14.68395        14.21009        -0.55118
C         14.71159        17.11574        -0.62887
C         13.46503        19.26589        -0.46464
C         14.70209        18.54356        -0.56460
C         15.93241         2.00130         0.29731
C         15.96072         3.42218         0.56361
C         17.17563         1.29751         0.26947
C         17.18592         4.10343         0.62059
C         15.94263         6.31869         0.74753
C         15.93448         7.67817         0.22197
C         17.19922         5.57865         0.82694
C         17.19357         8.44997         0.07964
C         15.89529        10.58133        -0.31704
C         15.90975        12.03460        -0.47325
C         17.15379         9.88119        -0.20040
C         17.15380        12.74359        -0.46357
C         15.89486        14.92358        -0.47279
C         15.91869        16.38206        -0.48955
C         17.14656        14.19754        -0.45684
C         17.13930        17.08322        -0.38801
C         15.94161        19.21956        -0.48679
C         17.16401        18.51031        -0.41075
C         18.41272         1.97934         0.32734
C         18.39970         3.40683         0.43918
C         19.67369         1.31095         0.24438
C         19.66707         4.12336         0.18559
C         18.45354         6.35192         0.52185
C         18.38354         7.76861         0.13467
C         19.67294         5.60831         0.09170
C         19.64558         8.42508        -0.36620
C         18.34960        10.60781        -0.22742
C         18.37417        12.02958        -0.35058
C         19.62201         9.88944        -0.00115
C         19.64147        12.72250        -0.43509
C         18.34937        14.89332        -0.45923
C         18.40178        16.33889        -0.05863
C         19.60162        14.16928        -0.70846
C         19.67920        17.07387        -0.39979
C         18.41544        19.19712        -0.33487
C         19.65778        18.51692        -0.35050
C         20.92717         1.97858         0.35610
C         20.95271         3.43440         0.40163
C         22.14030         1.27249         0.27960
C         22.12977         4.16787         0.50336
C         20.95238         6.34495         0.17888
C         20.93290         7.73534         0.02777
C         22.16005         5.61818         0.34646
C         22.15591         8.46043        -0.07027
C         20.91731        10.63828        -0.04623
C         20.87255        12.08270        -0.33517
C         22.16941         9.88644        -0.22379
C         22.13098        12.78944        -0.41943
C         20.90530        14.93593        -0.73461
C         20.88630        16.40044        -0.51044
C         22.15633        14.19982        -0.51050
C         22.14057        17.09447        -0.48063
C         20.88749        19.21428        -0.35872
C         22.12804        18.53251        -0.38827
C         23.40324         1.90179         0.63926
C         23.37775         3.44090         0.83257
C         24.71177         1.27700         0.42954
C         24.68992         4.17267         0.78906
C         23.37647         6.35498         0.27324
C         23.37559         7.72698        -0.00881
C         24.66063         5.66467         0.54198
C         24.62357         8.42727        -0.49368
C         23.38553        10.62238        -0.28796
C         23.36432        12.06687        -0.33074
C         24.62182         9.92591        -0.26357
C         24.59295        12.79019        -0.33775
C         23.37594        14.92935        -0.46604
C         23.36856        16.38291        -0.49626
C         24.59862        14.23021        -0.40219
C         24.60423        17.09621        -0.47747
C         23.35977        19.22206        -0.30806
C         24.58831        18.53194        -0.34790
C         25.92968         1.98095         0.48628
C         25.94454         3.42912         0.55567
C         27.17814         1.30142         0.43197
C         27.13845         4.13963         0.38460
C         25.92112         6.32098         0.17015
C         25.90977         7.74839        -0.09622
C         27.09167         5.57725         0.21807
C         27.07510         8.48247        -0.07669
C         25.83188        10.65198        -0.19763
C         25.81408        12.06823        -0.22869
C         27.10094         9.93336        -0.16882
C         27.06922        12.83019        -0.15446
C         25.84722        14.96221        -0.50829
C         25.85512        16.41929        -0.56847
C         27.03787        14.25701        -0.49867
C         27.08677        17.14828        -0.61490
C         25.82007        19.21190        -0.18095
C         27.06763        18.57584        -0.30573
C         28.41666         1.99031         0.42142
C         28.41133         3.43449         0.33358
C         29.65641         1.30287         0.44858
C         29.63906         4.10967         0.23175
C         28.34981         6.29951        -0.02168
C         28.33765         7.77083         0.20672
C         29.64447         5.57394        -0.00315
C         29.63254         8.49595         0.06349
C         28.30287        10.61056        -0.26604
C         28.38260        12.07361        -0.21115
C         29.57439         9.88522        -0.44624
C         29.64952        12.75382        -0.57409
C         28.28843        14.93905        -0.83711
C         28.31239        16.41113        -0.78489
C         29.61021        14.19535        -0.88080
C         29.56130        16.98239        -1.03548
C         28.23250        19.33220         0.08434
C         29.53352        19.02756        -0.33954
C         30.89898         1.98426         0.39482
C         30.88783         3.42011         0.27806
C         32.15349         1.31937         0.40986
C         32.12594         4.11542         0.14238
C         30.89708         6.33514         0.39539
C         30.90199         7.77457        -0.06057
C         32.09871         5.56882        -0.09137
C         32.08540         8.50302        -0.15711
C         30.87355        10.62098        -0.60504
C         30.85349        12.09418        -0.60222
C         32.13148         9.91650        -0.32370
C         32.12205        12.79476        -0.64914
C         30.87545        14.94188        -0.74740
C         30.83583        16.35859        -0.78053
C         32.09686        14.24291        -0.63212
C         32.01326        17.12508        -0.48727
C         30.78989        19.28660         0.22187
C         31.98178        18.53353        -0.09176
C         33.38136         2.01755         0.30606
C         33.36768         3.45522         0.15870
C         34.63246         1.34843         0.33253
C         34.61766         4.18657         0.08494
C         33.38801         6.32339        -0.17766
C         33.34756         7.78411         0.09971
C         34.64636         5.59494        -0.00549
C         34.65076         8.54718        -0.04321
C         33.36052        10.63651        -0.43718
C         33.32996        12.09071        -0.62032
C         34.59014         9.95967        -0.40899
C         34.58949        12.81833        -0.62609
C         33.30702        14.98071        -0.52628
C         33.25853        16.41074        -0.39582
C         34.55929        14.27639        -0.51711
C         34.48137        17.10592        -0.14806
C         33.19909        19.16851         0.20383
C         34.45577        18.51831         0.10923
C         35.85952         2.04737         0.25291
C         35.86251         3.48001         0.14450
C         37.10831         1.36278         0.29070
C         37.09673         4.19395         0.10308
C         35.86201         6.34938        -0.01848
C         35.85766         7.73604        -0.21687
C         37.12431         5.62976         0.04578
C         37.13316         8.45184        -0.41857
C         35.79749        10.64306        -1.01427
C         35.79092        12.12062        -0.66415
C         37.12671         9.91653        -0.73224
C         37.08350        12.81502        -0.65156
C         35.75057        15.00304        -0.37614
C         35.72733        16.41398        -0.13880
C         37.05467        14.33038        -0.47345
C         36.94482        17.12913         0.07440
C         35.66123        19.21501         0.31375
C         36.91021        18.54672         0.28749
C         38.32224         2.05286         0.24907
C         38.32984         3.48949         0.16805
C         39.58608         1.36279         0.29549
C         39.56323         4.20298         0.15991
C         38.33558         6.32981         0.09513
C         38.31512         7.83192         0.29134
C         39.57636         5.63470         0.12669
C         39.61023         8.53802        -0.02521
C         38.34268        10.68277        -0.34381
C         38.30349        12.04996        -0.28175
C         39.59494         9.95134        -0.13742
C         39.50560        12.78574         0.17172
C         38.24234        15.04673        -0.00188
C         38.20448        16.43445         0.14827
C         39.47711        14.30786         0.29798
C         39.43233        17.16461         0.36402
C         38.12171        19.24940         0.48835
C         39.37220        18.58793         0.50286
C         40.76810         2.04819         0.27545
C         40.79631         3.48526         0.21552
C         42.00281         4.20810         0.22014
C         40.81768         6.34808         0.11094
C         40.82322         7.81469         0.00524
C         42.00913         5.60306         0.16277
C         42.02997         8.54815        -0.09676
C         40.82490        10.67346        -0.11663
C         40.81461        12.12251         0.02400
C         42.02950         9.93407        -0.12593
C         41.95728        12.89647         0.13897
C         40.75301        15.04344         0.29303
C         40.69573        16.50068         0.36598
C         41.92750        14.31235         0.27228
C         41.86529        17.27452         0.49370
C         40.58130        19.32310         0.65108
C         41.80220        18.66820         0.63689
O         15.15731         7.68758        -1.08854
O         37.41380         8.91103        -1.78233
O         39.30506        13.42701         1.48586
O          8.13170        14.54094         2.05417
O          6.79961        10.40127        -1.13978
O         29.59697        18.27654        -1.53706
O         20.23538        14.55673        -1.99764
O         19.55293         4.84092        -1.15108
O         13.88224         3.38401         1.84988
O         37.30386        13.70279        -1.80634
O         30.15254        10.03744        -1.78250
O         10.48762        10.54392         1.83932
O          6.30341         5.78293         1.42279
O         20.25789        10.25224         1.25311
O         23.28791         2.57869         1.97146
O         32.61800         5.97844        -1.38853
O         13.35512        11.05549        -1.75506
O         13.97149         6.09020         2.22192
O         11.16635        12.15154        -1.39540
O         12.64388        16.82265        -1.96119
O         29.04805         5.95476        -1.28457
O          8.75915        12.55255        -0.75172
O          3.07531         4.10115        -2.43224
O         18.10499         6.05866         1.91911
O         34.02342         8.21947         1.28933
O         24.74688         5.12124         1.91380
O         10.26608         7.88577         2.30142
O         27.85973        12.59436         1.08448
O         29.02178         8.27923         1.41401
O         28.85948        14.44810        -2.13444
O         35.60336        10.62179        -2.46087
H         36.12569         9.86024        -2.80760
O         30.95807         6.33658         1.84663
H         30.28853         6.99219         2.16294
O         18.42835        16.29257         1.43681
H         18.41464        17.22339         1.74925
O         13.66730         2.61854        -1.71612
H         13.63488         1.82807        -2.29520
O          3.55461        16.26533         2.66363
H          2.72295        15.79906         2.89627
O          8.64601         3.85011        -2.08592
H          7.91756         3.36404        -2.52856
O          4.62361        18.38218        -1.07052
H          5.44645        18.01601        -1.46101
O         38.06981         8.05400         1.71699
H         38.79265         7.62341         2.21989
O         19.59779         8.38646        -1.82594
H         19.59583         7.44692        -2.10953
O         24.55081         8.27241        -1.96472
H         25.31598         8.74870        -2.35264
H          0.21586         1.52870        -1.21768
H          0.07701         3.96177        -0.97684
H          2.37812         0.33138        -1.26633
H          0.08600         5.99455        -1.06457
H          0.06643         8.40000        -0.66076
H          0.05668        10.31236        -0.36989
H          0.08784        12.71741        -0.06456
H          0.12961        14.67873         0.18695
H          0.23675        17.11273         0.46799
H          1.53042        19.19182         1.22861
H          4.84460         0.33338        -0.98244
H          3.72746        20.33724         1.07426
H          7.26041         0.33516        -0.63438
H          6.15353        20.31052         0.40254
H          9.71851         0.32496        -0.34320
H          8.52261        20.34941         0.39270
H         12.16479         0.33300        -0.40112
H         11.03434        20.40804         0.05346
H         14.70979         0.28339        -0.19846
H         13.51824        20.35725        -0.33223
H         17.16730         0.20658         0.12790
H         15.95586        20.31907        -0.46022
H         19.67722         0.21426         0.15307
H         18.41240        20.29726        -0.32631
H         22.13572         0.21185        -0.01182
H         20.88138        20.31399        -0.32319
H         24.73627         0.19846         0.21255
H         23.36002        20.31712        -0.20289
H         27.18030         0.20120         0.43262
H         25.79684        20.28983         0.03830
H         29.65232         0.20390         0.50717
H         28.07912        20.15995         0.79356
H         32.17395         0.22280         0.50323
H         30.89210        20.09558         0.96131
H         34.65009         0.25217         0.42824
H         33.18155        20.22643         0.50565
H         37.11249         0.26466         0.36213
H         35.63432        20.29753         0.50669
H         39.58275         0.26424         0.34942
H         38.09150        20.34012         0.62831
H         41.72428         1.50586         0.31285
H         42.95730         3.66408         0.26499
H         42.98009         6.11648         0.15934
H         42.99557         8.02547        -0.11049
H         42.99361        10.46017        -0.14575
H         42.94641        12.41981         0.09196
H         42.89582        14.83005         0.31666
H         42.84991        16.78809         0.49663
H         40.53532        20.41560         0.76340
H         42.73389        19.24125         0.74283
