         273
 CSIRO Nanostructure Databank - Neutral Graphene Oxide Data Set
C        -10.23678         0.64721         2.27975
C         -9.60322         1.71917         1.53286
C         -8.44588         0.82521        -0.17896
C         -7.22543         1.45491        -0.22334
C         -6.09851         0.71377        -0.81332
C         -4.91749         1.39239        -1.07093
C         -3.80837         0.72958        -1.76432
C         -2.43552         1.42698        -1.89228
C         -1.40869         0.69716        -1.03466
C         -0.23127         1.44866        -0.52312
C          1.00060         0.69080        -0.08649
C          2.26123         1.42097         0.23993
C          3.54884         0.65248         0.49332
C          4.81409         1.42705         0.61443
C          6.06382         0.66352         0.42882
C          7.37716         1.36074         0.51951
C          8.47983         0.53369        -0.03617
C         10.30733         1.72488         0.18803
C         11.32789         0.73112         0.52444
C         -8.94597         2.80697         2.00851
C         -8.05143         3.55435         1.10667
C         -7.02521         2.79998         0.34089
C         -5.74090         3.30268         0.34566
C         -4.59626         2.71108        -0.40802
C         -3.79017         3.67379        -1.33283
C         -2.51374         2.96432        -1.70433
C         -1.20923         3.69460        -1.47733
C         -0.15301         2.95443        -0.66660
C          1.11414         3.67227        -0.30175
C          2.38241         2.87886        -0.07744
C          3.65373         3.57444         0.30210
C          4.85115         2.78713         0.71934
C          6.13036         3.53034         0.96325
C          7.45194         2.83331         0.71258
C          8.66410         3.63141         0.17047
C          9.97066         2.96376         0.64192
C         -8.08940         4.92658         1.12643
C         -7.22092         5.83164         0.37658
C         -6.49876         5.39089        -0.86507
C         -5.11570         6.00921        -1.09432
C         -3.83640         5.21961        -1.34499
C         -2.49754         5.98457        -1.43800
C         -1.20654         5.19146        -1.33446
C         -0.01398         5.87096        -0.69768
C          1.32720         5.11390        -0.79652
C          2.37574         5.79671         0.09158
C          3.55729         5.03568         0.60601
C          4.80390         5.76725         1.05004
C          6.12177         5.02598         1.05491
C          7.36807         5.76868         0.68157
C          8.53483         5.12476         0.44928
C         -7.03822         7.10674         0.80398
C         -6.08186         8.10929         0.19929
C         -5.03773         7.49224        -0.76244
C         -3.75401         8.25763        -0.94702
C         -2.46664         7.50210        -1.22462
C         -1.19577         8.16711        -0.83472
C          0.01867         7.36952        -0.60246
C          1.34653         8.06995        -0.52324
C          2.54419         7.27357        -0.10722
C          3.58035         8.05744         0.72354
C          4.81493         7.25760         1.16272
C          6.19298         7.94134         1.33320
C          7.20519         7.25970         0.37786
C         -5.36899         8.82033         1.34315
C         -4.23609         9.50431         1.15424
C         -3.68268         9.64814        -0.25999
C         -2.31689        10.25128        -0.27156
C         -1.15647         9.55046        -0.51520
C          0.14360        10.35483        -0.50271
C          1.41121         9.54832        -0.33101
C          2.59858        10.15863        -0.10825
C          3.90805         9.38636        -0.00582
C          5.02484        10.10468         0.71493
C          6.08819         9.44528         1.19188
C        -10.24038        -0.64063         1.86197
C         -9.61111        -1.27982         0.67047
C         -8.67120        -0.61866        -0.33923
C         -7.59942        -1.39235        -1.12837
C         -6.21214        -0.73542        -1.00939
C         -5.07127        -1.47897        -1.25218
C         -3.84980        -0.81069        -1.73267
C         -2.52780        -1.54227        -1.68654
C         -1.29173        -0.78230        -1.31845
C         -0.09829        -1.53347        -0.80055
C          1.16282        -0.72902        -0.59476
C          2.47012        -1.45890        -0.48169
C          3.59029        -0.84710         0.32451
C          4.87027        -1.66863         0.58369
C          6.12283        -0.82570         0.39289
C          7.43108        -1.49474         0.74057
C          8.65974        -0.74951         0.38159
C          9.95108        -1.43728         0.27039
C         11.17654        -0.62474         0.38200
C         -9.46638        -2.74843         0.81395
C         -8.62721        -3.50500         0.09128
C         -7.59789        -2.98745        -0.93225
C         -6.24114        -3.61532        -0.36638
C         -4.90371        -2.91432        -0.76365
C         -3.88755        -3.75412        -1.57142
C         -2.56487        -3.05022        -1.67305
C         -1.29645        -3.78501        -1.38624
C         -0.06208        -3.01303        -1.00544
C          1.27229        -3.69722        -1.13258
C          2.52431        -2.94027        -0.83647
C          3.84336        -3.67265        -0.70281
C          5.05078        -2.93343        -0.23398
C          6.35645        -3.67250         0.02142
C          7.48401        -2.98886         0.76195
C          8.85797        -3.67773         0.84926
C         10.00069        -2.81238         0.31632
C         -8.75232        -5.00889         0.13416
C         -7.43439        -5.76746         0.12076
C         -6.31255        -5.12771        -0.63884
C         -5.14779        -5.97228        -1.06658
C         -3.83196        -5.31908        -1.52583
C         -2.64030        -5.75520        -0.63690
C         -1.31507        -5.10492        -1.03520
C         -0.03549        -5.89586        -1.01727
C          1.29320        -5.20249        -1.11839
C          2.55677        -5.93486        -0.69154
C          3.84690        -5.17822        -0.56697
C          5.17990        -5.90798        -0.64264
C          6.43607        -5.14066        -0.26247
C          7.63107        -5.84520         0.27461
C          8.77600        -5.16650         0.53081
C         -7.38854        -7.05261         0.52591
C         -6.41159        -8.04356        -0.06357
C         -5.11818        -7.41728        -0.59508
C         -3.79522        -8.01433        -0.22986
C         -2.55932        -7.28110        -0.70036
C         -1.12379        -7.69699         0.44250
C         -0.01176        -7.31489        -0.50923
C          1.27025        -8.11243        -0.45753
C          2.57734        -7.44269        -0.98956
C          3.85750        -8.15388        -0.49842
C          5.18519        -7.41132        -0.59328
C          6.49186        -8.15188        -0.20419
C          7.46056        -7.29345         0.65795
C         -6.16429        -9.26675         0.78635
C         -4.96786        -9.71048         1.18792
C         -3.69565        -8.91983         1.01139
C         -2.42821        -9.75335         0.98211
C         -1.22843        -9.17903         0.70593
C          0.06528        -9.84133         0.84951
C          1.25184        -9.29582         0.45160
C          2.53020        -9.95723         0.91427
C          3.80669        -9.41448         0.30691
C          5.06106        -9.90156         0.93766
C          6.25830        -9.39417         0.62918
O         -3.41158        -3.35415        -2.86457
O          9.44568         1.17431        -0.81307
O         -3.58536         2.41624         0.61523
H         -3.99772         1.90733         1.34418
O          4.76966        -2.17993         1.92141
H          4.38826        -1.47245         2.49211
O         -0.32987        -2.42658         0.33448
O          2.34205         7.61530        -1.51237
O          7.73100         1.92324         1.83010
O          5.33504        -6.69975        -1.86070
O          4.53385         6.43646         2.33488
O          2.89024         8.42942         1.93652
H          2.95737         7.65983         2.54944
O         -0.24711         6.47346         0.59104
O         -4.52622        10.58172        -0.94883
H         -5.44782        10.21615        -0.95041
O         -1.23654        -6.93836         1.52082
O         -7.91120        -3.57467        -2.14559
O         -6.21277        -5.62447        -2.01072
O          2.05949        -3.14656        -2.21572
O          3.35840         3.20306        -1.10517
O         -2.42051         6.90022        -2.55870
O         -3.49296         3.34917        -2.71017
O          6.07014        -0.09770        -0.85610
O          4.74227        -2.99589        -1.63903
O          2.40074         5.34826         1.46142
O         -7.01937         4.71701        -1.72848
O          3.05188        -5.56294         0.62425
O         -4.12283        -0.03752        -2.94819
O         -1.95804         1.31543        -3.23983
H         -2.60627         0.77110        -3.74901
O          2.65481        -9.78617         2.33379
H          1.80099       -10.01279         2.75622
O         -4.48381        -8.46701        -1.42849
O          7.25400        -2.23645         1.99354
O          2.12689        -0.69540        -1.68642
O         -2.98966        -5.31776         0.67269
H         -2.27798        -5.63112         1.29988
O         -9.59650         1.54723         0.13658
O         -4.67552         5.69068        -2.43086
O          6.20286         4.20845         2.26701
O         -6.37234        -3.48964         1.07781
H         -5.82299        -4.18203         1.50474
O          0.26968        -8.30014        -1.52281
O          6.87031        -4.16226        -1.25789
O         -0.76926         4.52959        -2.58131
O          1.30115         1.06449         1.28177
O          7.17587        -8.51518        -1.41081
H          6.83149        -7.94088        -2.13268
O         -3.57494        -5.79717        -2.83677
H         -4.32442        -5.53525        -3.41307
O          0.66757        -5.76165        -2.29465
O         -6.84062         9.10721        -0.53170
H         -7.11220         8.71317        -1.38837
O        -10.05757        -0.90942        -0.67073
O         -4.77671         8.25693        -1.97505
O          0.07737        11.38988         0.47974
H          0.33136        11.01498         1.34783
O         -2.16476        -7.68675        -1.93756
H         -2.73772        -8.42465        -2.24968
O          9.22724        -3.74546         2.26514
H          8.74980        -3.00518         2.71520
O          3.25497        -0.25846         1.61387
O          2.59069        -7.54379        -2.41119
H          2.78146        -8.47798        -2.64457
O         -3.62391        -8.03321         2.15823
H         -2.71574        -7.62251         2.18406
O         -7.92743        -1.15015        -2.50157
H         -8.03529        -2.05260        -2.91548
O         -1.36388         1.05837         0.35723
O         -1.57814        -1.10521        -2.70737
O          4.43064         9.15900        -1.32600
H          3.74159         8.69963        -1.86202
O          0.05606         3.55712         0.66504
O         -4.14604        -2.70104         0.46906
H         -4.78689        -2.42252         1.16368
O          3.89278        -9.47324        -1.15368
O          8.57865         3.60437        -1.27415
H          8.89269         2.71910        -1.58141
O          6.90450        -7.27483         1.98566
H          7.50852        -6.77113         2.57023
O          6.67891         7.34789        -0.94740
H          7.34481         7.00749        -1.57923
O         -9.43589        -5.38911        -1.06497
H         -8.99322        -4.86482        -1.79628
O         -5.32007         4.27750         1.21498
H         -6.03703         4.47785         1.85591
O          1.80746         5.12058        -2.13567
H          1.07275         4.85071        -2.73814
O         -7.12828        -8.52971        -1.23237
H         -7.25062        -7.76843        -1.84178
O          6.68532         7.70464         2.66322
H          6.09425         7.03589         3.08672
H         12.08460        -1.22539         0.56065
H         12.31783         1.10042         0.83715
H         10.55783         3.44628         1.43575
H          9.41065         5.72948         0.15936
H          8.20391         7.77122         0.43712
H          6.92069        10.01067         1.63857
H          5.01810        11.20588         0.71236
H          2.62276        11.25704        -0.02509
H          0.19101        10.87029        -1.50295
H         -2.24569        11.32734        -0.05228
H         -3.75361        10.03778         1.98666
H         -5.82704         8.76877         2.34318
H         -7.60991         7.46234         1.67729
H         -8.80950         5.41001         1.80551
H         -9.01104         3.10049         3.06691
H        -10.66813         0.88427         3.26446
H        -10.70180        -1.37234         2.54627
H        -10.15203        -3.24425         1.52182
H         -9.37524        -5.32705         1.01033
H         -8.27670        -7.48455         1.01519
H         -7.05978        -9.87221         0.99556
H         -4.90024       -10.64206         1.77116
H         -2.48338       -10.81853         1.25804
H          0.07953       -10.79292         1.40754
H          2.47036       -11.06299         0.68466
H          4.98049       -10.77115         1.60606
H          7.16325        -9.84949         1.05925
H          8.46059        -7.80710         0.67674
H          9.64326        -5.74480         0.89179
H         10.98987        -3.29846         0.30750
