         294
 CSIRO Nanostructure Databank - Neutral Graphene Oxide Data Set
C          1.23942         2.10684         0.39790
C          1.08677         3.42731        -0.02330
C          2.39107         1.35660         0.17354
C          2.18528         4.12008        -0.79863
C          1.02647         6.35422        -0.52383
C          1.01875         7.74431        -0.35959
C          2.21676         5.63253        -0.60977
C          2.22600         8.46158        -0.27050
C          1.10735        10.69539         0.56699
C          1.19172        11.99617         0.92031
C          2.20956         9.95861        -0.11833
C          2.46500        12.77157         0.87239
C          1.44849        15.02261         1.55311
C          1.52081        16.34696         1.80280
C          2.55199        14.26806         0.95841
C          2.81599        17.09443         1.60673
C          2.66714        18.57490         1.34843
C          3.53697         1.94506        -0.59623
C          3.52978         3.47977        -0.35288
C          4.87849         1.34048        -0.25974
C          4.72465         4.17500        -0.95601
C          3.46821         6.33690        -0.58112
C          3.44230         7.76863        -0.41808
C          4.70480         5.63849        -0.75252
C          4.74394         8.50230        -0.13133
C          3.48907        10.70226        -0.29046
C          3.63544        12.07301         0.28675
C          4.79522         9.97949        -0.59709
C          4.84454        12.83385        -0.12198
C          3.65292        14.94098         0.48957
C          3.65937        16.42766         0.53467
C          4.71580        14.30653        -0.40196
C          4.80683        17.21268        -0.02517
C          3.68143        19.28893         0.81407
C          4.90717        18.65356         0.34311
C          6.04947         1.99700        -0.53099
C          6.01663         3.40388        -1.02895
C          7.33435         1.35913        -0.39208
C          7.31568         4.16531        -1.04481
C          5.97932         6.29804        -0.28994
C          5.93999         7.76854        -0.77856
C          7.27001         5.62750        -0.73792
C          7.29387         8.52759        -0.70213
C          6.04776        10.66425         0.04544
C          6.01503        12.16529        -0.15624
C          7.32090        10.06891        -0.60790
C          7.29165        12.90765        -0.08222
C          6.05925        15.03267        -0.39551
C          6.03156        16.53285        -0.64455
C          7.24166        14.36198        -0.40867
C          7.32259        17.23832        -0.25752
C          6.06994        19.34702         0.16133
C          7.32226        18.67257        -0.13147
C          8.54523         2.01888        -0.55923
C          8.59741         3.44946        -0.78839
C          9.80025         1.31105        -0.49796
C          9.79419         4.13499        -0.68764
C          8.54847         6.26013        -0.20669
C          8.56511         7.76954        -0.44809
C          9.81451         5.64668        -0.84745
C          9.79433         8.43906         0.01934
C          8.54096        10.65820         0.04685
C          8.57284        12.14198         0.07150
C          9.73583         9.87876         0.50723
C          9.87728        12.79139        -0.39550
C          8.53807        15.08797        -0.45831
C          8.52693        16.55430        -0.22183
C          9.83008        14.34486        -0.32418
C          9.77640        17.25507        -0.17939
C          8.52169        19.37114        -0.22382
C          9.77370        18.68628        -0.31872
C         11.00197         1.97047        -0.51276
C         11.03854         3.41985        -0.48667
C         12.29594         1.19979        -0.63253
C         12.23809         4.08232        -0.22829
C         11.02239         6.31218        -0.22864
C         10.97669         7.66563         0.12506
C         12.32349         5.58772        -0.40310
C         12.12011         8.30265         0.87656
C         11.07724        10.58431         0.11860
C         11.06997        12.15894         0.36055
C         12.23636         9.79749         0.69654
C         12.37081        12.90091        -0.12313
C         11.00157        15.09035         0.31885
C         11.01727        16.57325        -0.03250
C         12.28369        14.40587        -0.05786
C         12.21935        17.28837        -0.05309
C         10.98820        19.35555        -0.55282
C         12.23781        18.67502        -0.47420
C         13.53104         1.98814        -0.26079
C         13.47219         3.33732        -0.03812
C         14.83404         1.21498        -0.38227
C         14.67216         4.04808         0.56625
C         13.51114         6.21837         0.28199
C         13.53681         7.64209         0.80245
C         14.68360         5.54261         0.35362
C         14.57415         8.43478        -0.02334
C         13.42746        10.34328         1.07845
C         13.58345        12.54114         0.69736
C         14.69027         9.89788         0.43836
C         14.81629        13.01796         0.45233
C         13.53278        15.10341         0.19037
C         13.48859        16.61874         0.28866
C         14.86121        14.40296        -0.15285
C         14.78461        17.37938         0.21560
C         13.44707        19.31112        -0.80504
C         14.75826        18.74560        -0.45820
C         16.02224         1.83628         0.39694
C         16.01008         3.43713         0.11728
C         17.36012         1.35851        -0.03769
C         17.24261         4.08442         0.83384
C         15.94988         6.31728         0.52903
C         15.93747         7.71958        -0.02445
C         17.26165         5.61776         0.68126
C         17.23076         8.47818        -0.12462
C         15.93567        10.74921         0.30380
C         16.04590        12.22603         0.87987
C         17.22036        10.00642        -0.06788
C         17.30179        12.93740         0.41294
C         16.05185        15.09723         0.51213
C         16.08933        16.60479         0.27862
C         17.33778        14.33178         0.20506
C         17.33227        17.27450        -0.20453
C         16.01307        19.27088        -0.99848
C         17.25189        18.64499        -0.80350
C         18.55996         1.87852         0.69032
C         18.54998         3.44472         0.31674
C         19.91583         1.32904         0.30331
C         19.77797         4.17704         0.78675
C         18.56179         6.30377         0.42908
C         18.61337         7.76220        -0.05651
C         19.73841         5.62769         0.67543
C         19.68198         8.53959         0.74827
C         18.52490        10.72680         0.05962
C         18.58245        12.16736         0.57479
C         19.79499         9.97905         0.28666
C         19.76114        12.84715        -0.09458
C         18.51583        15.01813        -0.12708
C         18.48727        16.41343        -0.69965
C         19.86530        14.35670         0.04577
C         19.80414        17.14825        -0.49118
C         18.46211        19.25450        -1.16671
C         19.75319        18.67363        -0.79457
C         21.02259         2.06442         0.54120
C         20.96937         3.48447         0.87915
C         22.19740         4.20578         1.16899
C         21.05848         6.33245         0.67242
C         21.04316         7.83847         0.67007
C         22.24130         5.55558         1.10359
C         22.20853         8.66923         1.07446
C         20.99151        10.64500         0.28297
C         21.03045        12.05841        -0.20552
C         22.19095         9.99251         0.80073
C         22.27778        12.85646        -0.31836
C         20.96696        14.92656        -0.88534
C         21.06929        16.43852        -0.73364
C         22.25542        14.16550        -0.62855
C         22.20892        17.15978        -0.96092
C         21.01228        19.28648        -1.21910
C         22.17679        18.58135        -1.18412
O          7.34698         5.18808        -2.11807
O         11.68742         8.25140         2.24681
O          9.42676        14.84384        -1.63375
O         14.80273        18.54562         1.04936
O         16.56441         7.91994        -1.32272
O          3.48572        12.11134         1.75556
O          8.14631         8.11087        -1.82608
O         14.97658        10.71459        -0.78495
O         17.88235        10.58912        -1.23911
O         21.31930         7.10637        -0.56074
O          3.57226        16.99948        -0.81235
O         17.04833        17.20607         1.21782
O         19.79539        18.10897         0.57499
O          5.19833         3.61877        -2.23640
O         16.58328         6.24492         1.85508
O          2.54813        10.63794        -1.40635
O         20.12401        12.27686        -1.37159
O         13.41472        11.60046         1.69441
O          7.94469        12.73261         1.25207
O         13.46805        15.80705         1.51602
O          5.97776         6.18678         1.18265
H          5.41720         5.41316         1.42274
O         15.02186        14.40465        -1.57662
H         14.43380        13.70057        -1.93777
O         20.30184        14.61185         1.40928
H         19.75030        14.05318         2.00455
O          5.91240        16.69456        -2.09015
H          5.76418        17.64603        -2.27404
O         17.16127         3.81746         2.23974
H         16.91061         4.66036         2.68801
O          9.88147         5.95209        -2.26361
H          9.00563         5.70381        -2.65703
O         11.21301        10.29871        -1.28946
H         12.12725        10.53649        -1.56866
O         19.23876         8.55390         2.12653
H         19.80524         9.17386         2.63197
O          3.68801         3.72327         1.07256
H          2.89634         3.36062         1.52800
O         10.85312        12.39928         1.74126
H         11.53934        11.92660         2.26227
O         15.87776        14.92041         1.94895
H         16.33282        15.67916         2.38195
O          3.32495         1.68437        -2.02234
H          4.06491         2.14778        -2.49384
O         16.03875         3.67590        -1.28423
H         16.97333         3.58705        -1.60654
O         12.63847         5.74858        -1.83879
H         11.78195         5.85096        -2.32357
O          1.94055         3.90460        -2.20544
H          2.13241         2.95047        -2.39600
O          7.44906        10.60590        -1.94599
H          7.99263         9.96211        -2.45849
O          4.78727         8.51962         1.30738
H          5.06542         7.62806         1.62570
O         14.06223         8.43635        -1.35885
H         14.74554         8.85185        -1.93195
O         14.04828         7.58697         2.14419
H         13.24017         7.77314         2.71291
O          8.66206         5.98884         1.19841
H          7.82784         6.26628         1.64344
O         18.49136         1.69273         2.09490
H         17.53459         1.67348         2.35354
O         18.29431        16.28052        -2.13902
H         19.02515        15.69425        -2.47275
O         12.24231        -0.00806         0.14415
H         12.12182         0.23786         1.08428
O          6.19005        10.44255         1.44965
H          5.45850        10.89389         1.92357
O         19.08638         7.73259        -1.41391
H         18.30312         7.71509        -2.00861
O          9.61216         9.81703         1.94345
H         10.37369         9.21777         2.27412
O          5.60969         7.64849        -2.17215
H          6.43033         7.40260        -2.65504
O          3.58766        16.94919         2.84142
H          3.03077        17.25463         3.58747
O         20.56187        14.71415        -2.26652
H         20.42914        13.73507        -2.37232
O         10.81857        15.02189         1.75999
H         11.66856        15.32373         2.16221
O          4.19776        14.41527        -1.75710
H          4.18640        15.37612        -1.98632
O         14.50383         3.89736         2.01273
H         14.71479         4.75513         2.44469
O         15.82367         1.59547         1.79515
H         15.28340         2.33487         2.17649
O         10.01897        12.45485        -1.79099
H          9.56179        13.16983        -2.30209
O         16.13199        12.12960         2.33110
H         15.93872        13.04157         2.66323
O         15.14941         1.15473        -1.77966
H         15.27096         2.08478        -2.08663
O         12.68388        12.51093        -1.49601
H         11.82307        12.55835        -1.99322
O         18.62231         3.51180        -1.13518
H         19.21357         4.25262        -1.39119
O          4.98346        10.06505        -2.00854
H          4.09341        10.02282        -2.42731
O         18.86894        12.13503         2.01089
H         17.99169        12.02969         2.46721
H          0.40444         1.63171         0.93677
H          0.11726         3.92321         0.12532
H          2.46866         0.33376         0.56941
H          0.06361         5.82904        -0.58849
H          0.05810         8.27425        -0.29791
H          0.15227        10.16744         0.71410
H          0.30391        12.48376         1.35181
H          0.51797        14.48103         1.77845
H          0.66311        16.87806         2.24402
H          1.76127        19.08523         1.71081
H          4.91353         0.29342         0.07913
H          3.61255        20.38574         0.74465
H          7.34524         0.28576        -0.15067
H          6.09993        20.42688         0.37195
H          9.78570         0.21148        -0.46762
H          8.51369        20.47095        -0.19504
H         12.40954         0.87116        -1.70469
H         10.98012        20.43257        -0.77623
H         14.67649         0.16639        -0.02923
H         13.41702        20.33039        -1.21856
H         17.46880         1.15260        -1.11675
H         15.98469        20.24115        -1.51810
H         20.00114         0.26953         0.02041
H         18.45069        20.22369        -1.68842
H         22.02132         1.62232         0.40362
H         23.10275         3.62810         1.40553
H         23.18975         6.08938         1.25801
H         23.12324         8.18872         1.45096
H         23.07942        10.60831         1.00100
H         23.24207        12.35042        -0.16038
H         23.21239        14.69918        -0.72628
H         23.16946        16.64891        -1.11886
H         20.99828        20.32509        -1.58118
H         23.11777        19.07441        -1.46714
