         421
 CSIRO Nanostructure Databank - Neutral Graphene Oxide Data Set
C          1.14610         3.57408         0.08390
C         -0.03129         4.25462        -0.21539
C          1.21222         6.28067        -0.76161
C         -0.01202         5.58677        -0.64161
C          1.29790         7.65531        -1.27009
C          0.24781         8.21381        -1.98980
C          1.53913        10.23719        -2.34391
C          0.39571         9.47814        -2.58529
C          1.57039        12.54850        -2.35075
C          0.42254        13.31552        -2.57997
C          1.33758        15.06859        -1.17688
C          0.28715        14.54755        -1.95523
C          1.24353        16.40955        -0.63065
C          0.03400        17.16906        -0.71013
C          1.06941        19.15528         0.25229
C         -0.04646        18.48976        -0.30969
C          1.09561        20.55654         0.54405
C         -0.10810        21.30998         0.67734
C          1.11803        23.42861         0.77951
C         -0.09378        22.67590         0.83972
C          1.12560        24.86722         0.85542
C         -0.07533        25.61387         1.01216
C          1.14475        27.72842         0.95400
C         -0.06508        26.99027         1.05437
C          1.15818        29.17135         0.98803
C         -0.05478        29.92431         1.01335
C          1.12415        32.05990         0.84180
C         -0.06124        31.30961         0.88147
C          1.13437        33.47382         0.59589
C         -0.07112        34.21938         0.45804
C          1.16810        36.24192        -0.07440
C         -0.05650        35.56826         0.15812
C          1.20115        37.65191        -0.38758
C          3.62185         3.53868         0.27147
C          2.39767         4.23171        -0.01629
C          3.66937         6.31579        -0.52910
C          2.39842         5.59622        -0.42620
C          3.65376         7.78361        -0.61221
C          2.51584         8.43053        -1.07650
C          3.75015        10.65524        -1.19185
C          2.58611         9.82987        -1.48120
C          3.77672        12.10846        -1.21299
C          2.61620        12.95300        -1.49853
C          3.68437        14.91108        -0.40691
C          2.53638        14.29835        -0.98937
C          3.62696        16.27917         0.03133
C          2.37331        16.98299        -0.01772
C          3.61997        19.14915         0.64979
C          2.25785        18.34759         0.49698
C          3.55837        20.57824         0.43559
C          2.34338        21.27408         0.55879
C          3.54963        23.45508         0.42411
C          2.34260        22.72894         0.57936
C          3.57602        24.86411         0.55770
C          2.35483        25.58085         0.76748
C          3.60772        27.72841         0.74030
C          2.37053        27.01390         0.82484
C          3.61593        29.15694         0.81509
C          2.39119        29.86230         0.94018
C          3.65271        32.03925         0.73942
C          2.40364        31.34898         1.21121
C          3.64484        33.43258         0.52847
C          2.37691        34.16214         0.42043
C          3.67106        36.16284        -0.38843
C          2.37605        35.51687         0.04733
C          3.65107        37.67797        -0.39688
C          2.37685        38.33974        -0.51170
C          6.11245         3.50834         0.34241
C          4.87629         4.16068         0.19889
C          6.10928         6.39803         0.28049
C          4.92955         5.58805        -0.21242
C          6.16915         7.76700        -0.43507
C          4.87114         8.56446        -0.21325
C          6.15617        10.64344        -0.59572
C          4.93294         9.97760        -0.75470
C          6.18840        12.07071        -0.63036
C          4.95656        12.78522        -0.79689
C          6.13143        14.85149        -0.12194
C          4.94040        14.19687        -0.45052
C          6.10509        16.19486         0.54623
C          4.82650        16.96970         0.35967
C          6.08004        19.08714         0.53413
C          4.86520        18.38135         0.47134
C          6.09401        20.51309         0.15658
C          4.78131        21.26105        -0.02072
C          6.06233        23.44943         0.27138
C          4.77244        22.78685        -0.16091
C          6.05913        24.85521         0.44672
C          4.82158        25.58650         0.50610
C          6.08472        27.71935         0.59774
C          4.84127        27.00537         0.62008
C          6.09262        29.16678         0.62388
C          4.86389        29.87451         0.73899
C          6.10256        32.02286         0.57029
C          4.87083        31.31339         0.69767
C          6.10252        33.44340         0.46732
C          4.86966        34.12968         0.41789
C          6.13000        36.28512         0.03606
C          4.83488        35.63541         0.43930
C          6.11683        37.66164        -0.29617
C          4.84335        38.35406        -0.41064
C          8.59402         3.50502         0.16583
C          7.36361         4.20294         0.19798
C          8.61180         6.32281         0.17206
C          7.39728         5.62821         0.14160
C          8.65447         7.82956         0.34626
C          7.37759         8.56340        -0.02490
C          8.66016        10.63284        -0.27912
C          7.38633         9.91027        -0.27308
C          8.65837        12.06627        -0.36233
C          7.41480        12.76460        -0.43362
C          8.61000        14.90071        -0.19489
C          7.40849        14.20003        -0.26388
C          8.62171        16.40131        -0.19633
C          7.35413        17.01156         0.34119
C          8.56911        19.12143         0.84533
C          7.32611        18.36509         0.56261
C          8.56878        20.59813         0.62720
C          7.33133        21.28907         0.22069
C          8.52311        23.40193         0.37007
C          7.29379        22.70772         0.25227
C          8.53688        24.81265         0.70147
C          7.28351        25.57824         0.59640
C          8.58677        27.69722         0.42709
C          7.29991        26.98151         0.59995
C          8.58899        29.19882         0.38612
C          7.31265        29.89896         0.55973
C          8.58961        32.02830         0.51591
C          7.34539        31.31480         0.56534
C          8.58796        33.45184         0.42823
C          7.35332        34.15495         0.36615
C          8.58061        36.26385        -0.03469
C          7.34507        35.57090         0.12950
C          8.57329        37.66895        -0.35825
C          7.33419        38.33279        -0.50669
C         11.07899         3.47790         0.05462
C          9.81807         4.19368         0.11898
C         11.12558         6.34632         0.35321
C          9.82699         5.61247         0.14073
C         11.12758         7.75613        -0.18078
C          9.81037         8.42311        -0.46905
C         11.11867        10.61340        -0.37512
C          9.85692         9.92993        -0.31897
C         11.11965        12.05979        -0.35428
C          9.89521        12.75541        -0.37808
C         11.13780        14.91518        -0.05267
C          9.90114        14.24239        -0.59758
C         11.07998        16.29642         0.34491
C          9.89121        16.98450         0.38810
C         11.12549        19.14762         0.62759
C          9.88181        18.35734         1.02077
C         11.07671        20.57398         0.41181
C          9.85710        21.26203         0.39814
C         11.10425        23.45457         0.06819
C          9.78199        22.69030         0.11530
C         11.12015        24.87668         0.37507
C          9.88206        25.55842         0.72232
C         11.07535        27.70693         0.63952
C          9.87931        27.01793         0.63736
C         11.07814        29.17165         1.01920
C          9.84442        29.92856         0.61859
C         11.10520        32.04290         0.61556
C          9.84650        31.31707         0.60402
C         11.09678        33.45938         0.47650
C          9.83304        34.17644         0.38596
C         11.03767        36.36710         0.22058
C          9.80106        35.56998         0.17311
C         11.03942        37.73724        -0.33722
C          9.79737        38.35742        -0.56757
C         13.53880         3.31837        -0.32006
C         12.28763         4.11913        -0.03178
C         13.54934         6.22713        -0.20667
C         12.35908         5.56355        -0.02534
C         13.59731         7.69464        -0.54545
C         12.30371         8.44728        -0.32881
C         13.64678        10.58856        -0.56688
C         12.31287         9.88379        -0.44691
C         13.58878        12.06609        -0.21520
C         12.36265        12.77297        -0.24869
C         13.58911        14.89627         0.21168
C         12.33887        14.19741        -0.00018
C         13.60652        16.28823         0.42202
C         12.34044        16.97175         0.87444
C         13.57156        19.15839         0.39340
C         12.33199        18.46347         0.58530
C         13.56810        20.57838         0.27836
C         12.32918        21.29314         0.26634
C         13.56904        23.43523         0.17972
C         12.35398        22.70221         0.20009
C         13.56719        24.86984         0.18197
C         12.32714        25.58173         0.35283
C         13.55167        27.71227         0.48072
C         12.32588        27.00315         0.53615
C         13.54281        29.15435         0.63549
C         12.37043        29.88896         0.73020
C         13.57441        32.04437         0.53647
C         12.35715        31.33734         0.67003
C         13.57500        33.45605         0.29533
C         12.32879        34.14668         0.32831
C         13.56860        36.29313        -0.18043
C         12.35967        35.61400         0.28958
C         13.51630        37.68252        -0.51326
C         12.26365        38.37065        -0.58032
C         16.02282         3.41626         0.00408
C         14.82145         4.09635        -0.13636
C         16.02366         6.24212        -0.02811
C         14.81479         5.51845        -0.16954
C         16.00333         7.70271         0.05749
C         14.83199         8.39535        -0.03479
C         16.04586        10.59974         0.25461
C         14.72045         9.87039         0.27197
C         16.03210        12.01204         0.25630
C         14.79687        12.74086         0.04763
C         16.05029        14.87113         0.21222
C         14.82139        14.17305         0.15703
C         16.06342        16.30539         0.22605
C         14.82036        17.00898         0.37154
C         16.03610        19.15167         0.19174
C         14.81588        18.44744         0.35197
C         16.03614        20.58084         0.08071
C         14.79695        21.29568         0.15612
C         16.02062        23.44042        -0.05260
C         14.80256        22.71965         0.11209
C         16.02017        24.87181        -0.09185
C         14.77629        25.59849         0.08462
C         16.00771        27.76083         0.06749
C         14.76583        27.02183         0.20134
C         16.06598        29.10059         0.34230
C         14.84659        29.82771         0.73664
C         16.12133        32.01951         0.29072
C         14.86278        31.34457         0.69233
C         16.12322        33.52541         0.39568
C         14.79341        34.17072         0.08728
C         15.99466        36.24670        -0.57695
C         14.78090        35.56214        -0.23147
C         15.94802        37.64011        -0.90502
C         14.71376        38.33522        -0.86911
C         18.45582         3.40103         0.45514
C         17.24022         4.11572         0.19589
C         18.46017         6.23988         0.53234
C         17.24295         5.53916         0.19486
C         18.48998         7.65993         0.59890
C         17.33111         8.42616         0.00972
C         18.41916        10.53110         0.81164
C         17.26301         9.87501         0.43238
C         18.42681        11.99206         0.89211
C         17.23213        12.73452         0.49430
C         18.53252        14.82396         0.23970
C         17.29172        14.14380         0.32209
C         18.53323        16.25836        -0.24923
C         17.28000        17.01458         0.11995
C         18.49948        19.16296        -0.01045
C         17.28639        18.43733         0.12390
C         18.48647        20.56726        -0.24153
C         17.23922        21.28521        -0.16324
C         18.42777        23.42833        -0.53499
C         17.23663        22.72084        -0.26407
C         18.44391        24.84929        -0.48718
C         17.22739        25.56231        -0.28118
C         18.52099        27.73773        -0.28930
C         17.19895        27.04980        -0.52941
C         18.56096        29.12351        -0.08907
C         17.37162        29.84842         0.49117
C         18.53182        32.01677        -0.18594
C         17.29153        31.32259         0.12285
C         18.50602        33.43338        -0.43104
C         17.29568        34.16572        -0.29550
C         18.42271        36.21919        -1.06366
C         17.23680        35.53562        -0.64129
C         18.36381        37.61722        -1.37986
C         17.13550        38.30493        -1.29157
C         19.60442         4.06555         0.78747
C         20.78767         6.18657         1.29258
C         19.62597         5.49712         0.86893
C         20.78406         7.56563         1.39691
C         19.64570         8.31835         1.02602
C         20.88474        10.49372         0.60026
C         19.68402         9.81673         1.24019
C         20.93262        11.82665         0.42612
C         19.78686        12.70843         0.75283
C         20.97472        14.84686         0.25629
C         19.77228        14.13678         0.34754
C         20.96868        16.27008         0.22716
C         19.80929        16.98619         0.08104
C         20.92721        19.14239        -0.58054
C         19.83066        18.48973         0.21994
C         20.84534        20.46399        -0.91033
C         19.67319        21.23549        -0.64388
C         20.90444        23.42957        -0.71619
C         19.63906        22.68862        -1.05076
C         20.90338        24.78374        -0.57357
C         19.69465        25.56061        -0.58227
C         20.94180        27.72558        -0.56214
C         19.72401        26.99935        -0.49445
C         20.95579        29.10652        -0.49496
C         19.77280        29.84154        -0.24575
C         20.93499        32.02446        -0.58186
C         19.74948        31.30196        -0.29616
C         20.91216        33.38223        -0.84477
C         19.70461        34.11368        -0.81802
C         20.81789        36.24230        -1.53072
C         19.66521        35.52800        -1.13497
C         20.75428        37.60504        -1.84457
C         19.55139        38.29283        -1.77293
O         10.37334        23.11627        -1.17885
O          5.38997        20.63435        -1.19293
O         19.17294        12.52444         2.06431
O          1.68542        11.38946        -3.12281
O          4.58670         5.73260        -1.63162
O          2.86846        18.63316         1.78473
O          8.38392        20.00129         2.02594
O         11.75775        36.24856         1.48798
O          9.26950        25.05784         1.98577
O          8.61804        28.40028        -0.88862
O          4.57276        36.03163         1.82043
H          5.29933        35.68380         2.37867
O         18.49151        16.17293        -1.73597
H         19.30192        15.69711        -2.01816
O          8.88770         8.06884         1.77224
H          8.96222         9.03965         1.90154
O         14.23975         9.96097         1.64929
H         14.87796         9.49567         2.22993
O          4.67109        23.06437        -1.59811
H          5.14836        22.32889        -2.05174
O         14.07343        10.49673        -1.96452
H         13.43198        11.00041        -2.50919
O          3.90454        35.73654        -1.76219
H          3.16568        36.07427        -2.31012
O          9.98993        14.43285        -2.08700
H          9.29968        13.85904        -2.48612
O         11.23013         6.51449         1.81814
H         10.41883         7.00638         2.10291
O         17.63464         8.50895        -1.43268
H         17.53741         7.60541        -1.80281
O          2.47206        31.45751         2.69888
H          1.66758        31.01852         3.05047
O         12.35670        16.81374         2.32431
H         11.52597        17.23612         2.66657
O         14.98504        30.62189         1.98734
O          9.99411        18.10970         2.46369
H          9.60262        18.90467         2.90371
O          6.40549         7.57291        -1.85017
H          5.76101         6.88591        -2.16969
O          6.12862        15.86584         2.00666
H          5.99472        16.70735         2.49473
O          5.90147         6.57985         1.70039
H          6.63065         7.14101         2.04332
O         16.98674        27.17367        -1.99065
H         17.71610        26.68914        -2.43293
O          4.75059         8.77675         1.23573
H          3.92531         9.28209         1.39302
O         19.52744        22.69168        -2.53130
H         19.54934        23.62871        -2.81968
O         13.77339         7.71209        -2.01118
H         13.95191         8.65455        -2.26236
O         20.15362        18.74686         1.64219
H         20.21862        19.71947         1.75308
O         19.81527         9.98931         2.68212
H         19.72314        10.95855         2.86122
O         11.01023        29.14305         2.50448
H         11.86786        28.79475         2.83131
O         17.63179        29.85545         1.93770
H         16.82171        30.23435         2.36101
O          9.51740         8.14256        -1.87397
H          8.54010         8.18235        -1.99976
O         13.47515         2.84608        -1.68545
H         13.44780         3.63040        -2.27204
O          8.64657        16.80455        -1.62064
H          9.25583        16.16909        -2.07720
O         16.33837        33.79048         1.84253
H         15.66300        33.27652         2.33636
H          1.11097         2.52217         0.40114
H         -0.99522         3.73388        -0.12586
H         -0.96093         6.08808        -0.87650
H         -0.67051         7.64048        -2.17431
H         -0.36932         9.86252        -3.27165
H         -0.35065        12.93982        -3.26185
H         -0.62244        15.13368        -2.13478
H         -0.86591        16.70946        -1.13853
H         -0.98895        19.03553        -0.45773
H         -1.07062        20.77993         0.70020
H         -1.05077        23.19330         0.98814
H         -1.03926        25.09527         1.09724
H         -1.02164        27.51540         1.17412
H         -1.02102        29.40482         1.03772
H         -1.03367        31.80855         0.76618
H         -1.04014        33.72511         0.60906
H         -1.00151        36.12517         0.08007
H          0.24253        38.18520        -0.47000
H          3.56402         2.47505         0.54880
H          2.36352        39.42825        -0.67409
H          6.13349         2.42382         0.52917
H          4.85400        39.45011        -0.51771
H          8.59250         2.40515         0.19445
H          7.32685        39.40046        -0.77204
H         11.04538         2.37886         0.00750
H          9.77178        39.40307        -0.90816
H         13.56060         2.40195         0.32422
H         12.26348        39.41472        -0.92700
H         16.03035         2.31617         0.01204
H         14.68966        39.40088        -1.13997
H         18.43839         2.30208         0.41766
H         17.09703        39.37638        -1.53833
H         20.52455         3.50919         1.01816
H         21.68513         5.61196         1.56362
H         21.67571         8.09029         1.76752
H         21.75453         9.87770         0.32560
H         21.81732        12.28582        -0.04092
H         21.93318        14.32587         0.38365
H         21.91990        16.79309         0.40295
H         21.83841        18.57133        -0.80900
H         21.68676        20.94198        -1.43283
H         21.85704        22.88225        -0.67515
H         21.86314        25.29458        -0.41175
H         21.89125        27.19788        -0.72216
H         21.91758        29.62205        -0.61484
H         21.90052        31.50452        -0.62618
H         21.85822        33.88479        -1.08572
H         21.78862        35.73408        -1.60162
H         21.66962        38.13156        -2.14921
H         19.50575        39.36425        -2.01467
