         470
 CSIRO Nanostructure Databank - Neutral Graphene Oxide Data Set
C         37.37791        50.16169         0.54615
C         36.19028        50.86071         0.67121
C         37.39998        52.95131         0.58586
C         36.20201        52.26675         0.69440
C         39.91587        48.66579         0.35286
C         39.86665        50.11512         0.29503
C         38.62109        50.83658         0.44180
C         39.88863        52.98015         0.33884
C         38.63353        52.26353         0.45509
C         39.93416        54.40473         0.31026
C         42.33384        48.58363        -0.14265
C         41.05683        47.94292         0.20845
C         42.31468        50.09628        -0.09254
C         41.06436        50.82885         0.18386
C         42.36269        52.97861         0.14389
C         41.10542        52.26201         0.23103
C         42.36795        54.40716         0.12374
C         41.12193        55.08989         0.19291
C         44.89677        45.76720         0.01895
C         43.67973        46.44497        -0.02339
C         44.86019        48.55215        -0.11716
C         43.63784        47.84836        -0.05076
C         44.85795        50.03459         0.10716
C         43.58897        50.80560         0.19918
C         44.83333        52.97997         0.17569
C         43.60063        52.28461         0.10883
C         44.82340        54.40741         0.23247
C         43.61896        55.12109         0.10000
C         44.84211        57.22295        -0.33114
C         43.67545        56.53456        -0.21131
C         47.43181        44.49516         0.99337
C         47.36493        45.62669         0.15574
C         46.13158        46.43769        -0.05228
C         47.31794        48.69688        -0.18268
C         46.10317        47.86657        -0.18681
C         47.31517        50.06322         0.01257
C         46.07387        50.83780        -0.29122
C         47.31913        52.95207         0.27960
C         46.08819        52.27252         0.18029
C         47.35926        54.38628         0.31690
C         46.09370        55.12427         0.40679
C         47.42817        57.23556        -0.26162
C         46.12065        56.64927         0.10666
C         47.50314        58.61655        -0.67978
C         49.87668        44.36150         0.75427
C         48.65278        43.84262         1.21573
C         49.85344        45.54808        -0.00398
C         48.59047        46.01230        -0.41517
C         49.81965        48.61367        -0.11722
C         48.60113        48.12245        -0.50245
C         49.84378        49.97181         0.46407
C         48.54116        50.76474         0.39479
C         49.79229        52.91783         0.26023
C         48.58036        52.24342         0.28589
C         49.82861        54.35660         0.26137
C         48.57504        55.08050         0.23175
C         49.90602        57.09264        -0.39813
C         48.59238        56.49356        -0.07544
C         49.95810        58.52183        -0.88976
C         48.68033        59.25084        -0.92326
C         52.31996        41.51072         0.60114
C         51.17408        42.19265         0.79699
C         52.40225        44.32977         0.40879
C         51.19415        43.67653         1.06494
C         52.36809        45.64986         0.01250
C         51.09034        46.32909        -0.29863
C         52.35852        48.69548        -0.39280
C         51.07098        47.86864        -0.41527
C         52.35628        49.94013         0.53068
C         51.09099        50.72365         0.37665
C         52.31868        52.84171         0.54855
C         51.08096        52.16250        -0.02027
C         52.29508        54.33782         0.70148
C         51.05111        55.06085         0.37303
C         52.28636        57.22431         0.44632
C         51.12232        56.46952         0.18649
C         52.24244        58.66638         0.13605
C         51.22372        59.26651        -0.65429
C         52.56444        61.31150        -0.90934
C         51.39515        60.57971        -1.13352
C         54.86813        39.96023         0.36717
C         54.79667        41.40480         0.41129
C         53.62148        42.15985         0.47093
C         54.84948        44.29466        -0.00357
C         53.65111        43.60196         0.34185
C         54.90307        45.69524        -0.11960
C         53.62953        46.41709         0.02080
C         54.86904        48.64844        -0.30206
C         53.60874        47.90582        -0.03356
C         54.85515        50.02047        -0.12601
C         53.62172        50.73438         0.23556
C         54.81429        52.89075         0.11533
C         53.58831        52.09982         0.30669
C         54.81005        54.36811         0.41845
C         53.54841        55.10933         0.72776
C         54.85720        57.16495         0.78360
C         53.53938        56.50040         0.73898
C         55.01531        58.53507         1.03353
C         53.22773        59.57564         0.58133
C         54.81323        61.49790         0.27784
C         53.53565        60.81744        -0.01085
C         54.89538        62.87434         0.13105
C         57.36700        39.88961         0.72008
C         56.04080        39.27489         0.33426
C         57.35132        41.41292         0.51241
C         56.07616        42.07813         0.10073
C         57.38485        44.30330        -0.27580
C         56.10145        43.54858        -0.20910
C         57.34432        45.72610        -0.51165
C         56.11932        46.39975        -0.42820
C         57.37769        48.64111        -0.94947
C         56.05311        47.86436        -0.73308
C         57.33030        50.12870        -0.73492
C         56.08072        50.79276        -0.25159
C         57.35395        52.90908        -0.06221
C         56.08610        52.14196         0.00026
C         57.35527        54.36626         0.23878
C         56.11661        54.99039         0.85830
C         57.30329        57.17045         0.58105
C         56.08796        56.47824         0.67259
C         57.30869        58.56300         0.34911
C         56.12581        59.27097         0.59066
C         57.40576        61.47744         0.32971
C         56.07370        60.76031         0.58600
C         57.34845        62.91737         0.01687
C         56.12314        63.57534         0.07537
C         59.98660        37.14381         0.09854
C         58.74936        37.84908         0.34565
C         59.76982        39.95910        -0.38590
C         58.60133        39.18463         0.12905
C         59.81722        41.43523        -0.16115
C         58.59092        42.18290         0.23598
C         59.88226        44.22838        -0.42659
C         58.56186        43.58515        -0.25081
C         59.92370        45.70148        -0.70941
C         58.59463        46.41840        -1.07146
C         59.91117        48.58786        -0.66751
C         58.62977        47.90569        -0.79684
C         59.92166        50.10683        -0.56310
C         58.62933        50.85324        -0.57240
C         59.89283        52.90915         0.23926
C         58.60147        52.11548         0.28697
C         59.82525        54.32943         0.53377
C         58.64228        55.02081         0.57528
C         59.82090        57.23425         0.57758
C         58.57755        56.47658         0.99537
C         59.79682        58.48148         0.04429
C         58.51539        59.21528        -0.26884
C         59.77872        61.34867        -0.45722
C         58.64401        60.71551        -0.04098
C         59.68294        62.80923        -0.92195
C         58.58757        63.59092        -0.23427
C         59.95940        65.60466        -0.12402
C         58.72801        64.95340        -0.00117
C         62.46987        35.76358        -0.90505
C         62.40735        37.11547        -0.49220
C         61.12469        37.79012        -0.27346
C         62.30536        39.99420        -0.00584
C         61.11631        39.25750        -0.63117
C         62.27616        41.36010         0.27448
C         61.09238        42.13196         0.10328
C         62.22694        44.29403         0.44834
C         61.07794        43.54754         0.14229
C         62.27600        45.73113         0.24251
C         61.12110        46.44036        -0.22240
C         62.33122        48.55322         0.00659
C         61.13208        47.84518        -0.24005
C         62.33833        50.03173        -0.08786
C         61.04392        50.71350         0.28436
C         62.36199        52.91637         0.47751
C         61.09536        52.23415         0.24315
C         62.37247        54.31641         0.74529
C         61.09009        55.00987         0.88245
C         62.37819        57.16833         0.56829
C         61.09548        56.53649         0.85343
C         62.35040        58.44666        -0.17775
C         61.03939        59.10637        -0.48682
C         62.33102        61.26942        -0.91720
C         60.97094        60.55320        -1.01129
C         62.34119        62.74696        -1.12530
C         61.03923        63.54108        -1.00754
C         62.39633        65.60087        -0.46531
C         61.13598        64.94694        -0.52951
C         62.50534        66.93068         0.08694
C         64.90087        35.86986        -1.04183
C         63.68123        35.17832        -1.23525
C         64.85612        37.19212        -0.51109
C         63.60449        37.84101        -0.34238
C         64.87527        39.95739         0.53268
C         63.58897        39.30119        -0.09417
C         64.74428        41.35312         1.05180
C         63.43875        42.03564         0.89400
C         64.61676        44.31973         1.33944
C         63.35422        43.56364         1.05704
C         64.66197        45.79302         1.06454
C         63.46542        46.46451         0.50617
C         64.79317        48.58548         0.47470
C         63.53270        47.86313         0.30381
C         64.82889        49.98385         0.43653
C         63.62077        50.77105         0.13213
C         64.77979        52.85027         0.88429
C         63.58381        52.20339         0.49862
C         64.75575        54.24126         1.21081
C         63.56780        55.03429         1.01708
C         64.79294        57.28801         0.68623
C         63.56279        56.49919         0.84884
C         64.78940        58.54692        -0.04028
C         63.60807        59.20210        -0.34359
C         64.81828        61.27695        -1.11151
C         63.52988        60.58637        -0.78953
C         64.86302        62.78353        -1.17992
C         63.60170        63.50344        -0.92905
C         64.89340        65.61803        -0.82426
C         63.60758        64.87722        -0.75675
C         64.92967        67.05071        -0.34045
C         63.68633        67.58479         0.23151
C         67.54946        33.73886        -2.67206
C         66.31026        34.16127        -2.23115
C         67.36679        35.89726        -0.88351
C         66.18425        35.28885        -1.38021
C         67.25790        37.06931        -0.07270
C         66.05988        37.79892         0.00319
C         67.05438        39.29342         1.66502
C         65.98917        39.01890         0.78835
C         67.04370        41.52658         1.95660
C         65.85089        42.11894         1.43787
C         67.09624        44.25447         1.28179
C         65.89181        43.58154         1.35494
C         67.16607        45.69746         1.11722
C         65.98064        46.44356         0.93568
C         67.27457        48.50469         0.76662
C         66.02286        47.84464         0.72310
C         67.29496        49.96831         0.62183
C         66.03314        50.71430         0.68931
C         67.23291        52.74651         1.42174
C         66.02728        52.10051         0.94135
C         67.13285        54.10002         1.94573
C         65.92020        54.76894         1.84531
C         67.21733        57.56428         1.24175
C         65.92896        56.97612         1.41983
C         67.39807        58.46391         0.04355
C         66.10290        59.13779        -0.41922
C         67.38888        61.33256        -0.87432
C         66.12498        60.55076        -0.92994
C         67.39458        62.73451        -1.03293
C         66.15830        63.48845        -1.02030
C         67.40934        65.60400        -0.82549
C         66.17318        64.86620        -0.85825
C         67.44376        66.98657        -0.54904
C         66.25683        67.61216         0.15206
C         67.40876        69.80245        -0.17297
C         66.29061        69.11328         0.13714
C         70.19080        32.98413        -3.75235
C         70.03927        34.04448        -2.82409
C         68.74897        34.37989        -2.25632
C         69.85929        36.05298        -0.82560
C         68.66022        35.41217        -1.28419
C         69.79296        36.92511         0.37119
C         68.43056        37.47644         0.71118
C         69.51362        39.26166         2.04391
C         68.32249        38.67894         1.54952
C         69.47523        41.50212         2.29172
C         68.28117        42.14801         1.89863
C         69.63801        44.20388         1.48549
C         68.37444        43.45122         1.14749
C         69.65879        45.61660         1.37332
C         68.43310        46.36664         1.13988
C         69.73082        48.48951         1.26079
C         68.47831        47.78329         1.01903
C         69.76935        49.90344         1.37250
C         68.58721        50.71280         1.00813
C         69.56238        52.59786         2.39123
C         68.43828        52.05994         1.53779
C         69.54700        54.11191         2.48296
C         68.32777        54.75600         2.43279
C         69.65136        57.66714         1.67926
C         68.34897        57.08240         1.88689
C         69.70583        58.97466         0.98968
C         68.54431        59.43404         0.21304
C         69.89798        61.26700        -0.74514
C         68.58638        60.65128        -0.44461
C         69.89960        62.76719        -1.21286
C         68.62546        63.47682        -1.08940
C         69.87660        65.60166        -1.17136
C         68.64609        64.88268        -1.04782
C         69.80745        67.08792        -1.43313
C         68.61684        67.75418        -0.78246
C         69.82398        69.92650        -0.86818
C         68.62701        69.14698        -0.60666
C         69.81234        71.33956        -0.83480
C         72.53947        33.49801        -4.02035
C         71.41549        32.71378        -4.33881
C         72.42498        34.53534        -3.11194
C         71.18368        34.83238        -2.49221
C         72.17812        36.75539        -1.16378
C         71.07310        35.86018        -1.48499
C         72.14964        37.62009        -0.12944
C         71.07132        37.57923         0.92697
C         71.90862        39.79791         1.86048
C         70.81031        38.93644         1.60211
C         71.89304        41.18154         2.05906
C         70.75128        42.02805         2.03016
C         72.03702        44.17612         1.87446
C         70.81620        43.47421         1.76907
C         72.07245        45.55220         1.74387
C         70.89550        46.30457         1.52597
C         72.11846        48.45886         1.79013
C         70.92428        47.75465         1.50954
C         72.13460        49.83579         1.91451
C         70.94937        50.58458         1.74418
C         72.04530        52.78293         2.13136
C         70.91150        52.02131         2.01058
C         72.00486        54.15977         2.53310
C         70.79876        54.79374         2.70899
C         72.11069        57.70961         1.90875
C         70.82160        57.16835         2.24318
C         72.24769        58.81110         1.11295
C         71.08379        59.62403         0.74979
C         72.33098        61.41518        -0.50177
C         71.15289        60.73547        -0.22798
C         72.33960        62.75605        -0.95466
C         71.16718        63.49150        -1.11806
C         72.32358        65.70428        -1.23389
C         71.12330        64.93716        -1.19441
C         72.30090        67.09659        -1.18914
C         71.10301        67.82083        -1.17885
C         72.24857        70.03477        -1.23492
C         71.07039        69.25689        -1.09695
C         72.20493        71.41967        -1.18997
C         70.97825        72.07675        -0.99932
O         58.48616        51.68644         1.63184
O         54.72881        53.91867        -0.96522
O         44.29626        50.34502         1.42129
O         57.36777        53.88856        -1.14871
O         61.05219        55.80243         2.13060
O         59.52649        40.88480        -1.51236
O         61.66577        58.24303        -1.50854
O         60.25656        49.52507        -1.81795
O         52.15018        53.39718         1.87785
O         53.98617        59.21128         1.69237
O         58.07079        42.07595         1.61835
O         48.54759        47.02924        -1.37556
O         64.44672        45.27333         2.44118
O         49.05940        50.23955         1.68886
O         56.52448        48.19079        -2.06466
O         50.06538        57.40958        -1.83727
O         60.23053        44.73227        -1.77916
O         66.89540        40.30255         2.62753
O         69.01876        36.31140         1.45340
O         56.89074        61.27164         1.69448
O         51.09006        47.01876        -1.60313
O         70.24076        60.01268         1.89233
O         69.38874        40.29253         3.00173
O         68.24730        56.09426         2.86672
O         56.05986        42.54172        -1.29702
O         64.58001        40.00226        -0.91158
O         65.80330        56.02875         2.44360
O         64.78400        61.95922        -2.40283
O         66.18846        59.40184        -1.86413
O         64.87057        66.75795        -1.76016
O         63.00406        42.67689         2.16042
O         53.60072        47.28362         1.28198
O         68.20683        50.51137        -0.39096
O         46.07949        56.12920         1.47051
O         70.78882        56.12563         3.16982
O         69.93643        61.65906        -2.14897
O         63.05887        50.54990        -1.23315
O         61.64116        63.28298        -2.31131
O         57.95719        50.88940        -1.84160
O         42.28669        49.39355        -1.37990
O         60.76920        50.34935         1.65657
H         59.91495        50.83336         1.91221
O         59.18303        62.69709        -2.28102
H         59.95264        62.43013        -2.84059
O         57.45741        39.65776         2.15491
H         57.89923        40.44983         2.54451
O         67.82529        57.57732        -1.03752
H         67.56930        58.02807        -1.87794
O         66.33313        67.19425         1.55903
H         67.14038        67.59502         1.94539
O         52.50827        49.23228        -1.72472
H         52.23273        48.53073        -2.35870
O         58.44234        46.34411        -2.51545
H         59.01616        45.60180        -2.82640
O         51.22155        52.16917        -1.48846
H         51.86473        51.46598        -1.74001
O         68.48091        43.09483        -0.27799
H         68.61041        43.92716        -0.78065
O         52.38898        49.47026         1.89725
H         52.24436        50.23477         2.49335
O         71.56915        36.69895         1.96984
H         70.77678        36.31341         2.41033
O         69.29153        52.10390         3.75750
H         70.02050        52.42042         4.33229
O         58.49900        56.46389         2.46316
H         59.37961        56.13346         2.78112
O         56.21641        54.74692         2.28594
H         56.98510        55.27234         2.62591
O         60.69702        60.43229        -2.44133
H         61.29285        59.71634        -2.77093
O         58.29316        59.09196        -1.70672
H         59.04626        59.53850        -2.17276
O         69.57205        67.21844        -2.89263
H         70.29999        66.74302        -3.34719
O         51.40947        43.83852         2.50180
H         52.26963        43.42479         2.72552
O         61.38623        39.28303        -2.05584
H         60.92742        40.08243        -2.41209
O         45.99484        50.92062        -1.75788
H         46.78010        51.41006        -2.08264
H         37.34328        49.06450         0.52367
H         35.23805        50.31839         0.75094
H         37.37958        54.04890         0.60540
H         35.25918        52.82166         0.79628
H         38.99235        48.12171         0.59407
H         39.00484        54.98445         0.38391
H         41.02850        46.85702         0.37851
H         41.10089        56.18798         0.19240
H         44.88844        44.67073         0.09525
H         42.74778        45.86367        -0.00503
H         44.82502        58.23786        -0.75349
H         42.74381        57.03755        -0.50647
H         46.52484        44.11312         1.48309
H         46.57272        59.20070        -0.71572
H         48.65972        42.93678         1.83793
H         48.68895        60.33669        -1.09611
H         52.27815        40.41708         0.49576
H         50.21870        41.65195         0.86818
H         52.70905        62.27638        -1.41448
H         50.61725        61.01333        -1.77718
H         53.93143        39.39374         0.25382
H         53.97127        63.44996        -0.02291
H         56.01212        38.18078         0.22097
H         56.08372        64.66013        -0.09710
H         60.00848        36.06343         0.30357
H         57.92032        37.27793         0.78747
H         59.99114        66.66560         0.15146
H         57.87591        65.52713         0.38913
H         61.53800        35.19693        -1.03891
H         61.60744        67.41354         0.49299
H         63.69224        34.14780        -1.61596
H         63.71539        68.53272         0.78702
H         67.59360        32.90729        -3.38793
H         65.40961        33.65723        -2.60776
H         67.38211        70.89877        -0.11351
H         65.39057        69.65685         0.45875
H         69.32901        32.35598        -4.01477
H         68.86982        71.88317        -0.68860
H         73.50995        33.27928        -4.48664
H         71.51087        31.88560        -5.05445
H         73.31742        35.12364        -2.85989
H         73.04272        36.77631        -1.84274
H         73.00607        38.29146         0.02666
H         72.91059        39.36023         1.72985
H         72.88151        41.66578         2.04949
H         72.96971        43.63473         2.08059
H         73.04307        46.05582         1.83466
H         73.05570        47.91326         1.95776
H         73.07388        50.34008         2.17892
H         73.03109        52.34489         1.91881
H         72.94435        54.70932         2.67289
H         73.00103        57.15447         2.23637
H         73.24111        59.09930         0.74012
H         73.29111        60.97820        -0.19084
H         73.31353        63.26288        -0.99002
H         73.29548        65.19492        -1.24468
H         73.26236        67.62474        -1.12068
H         73.21336        69.54080        -1.41246
H         73.12708        72.00323        -1.31717
H         70.94018        73.17442        -0.97769
