         349
 CSIRO Nanostructure Databank - Neutral Graphene Oxide Data Set
C          1.26272         1.97129        -0.65574
C          1.20721         3.34444        -0.72268
C          2.46493         1.25981        -0.41743
C          2.38509         4.15992        -0.41007
C          1.37126         6.32628        -1.25825
C          1.43662         7.68523        -1.55672
C          2.48693         5.60725        -0.76002
C          2.58084         8.45826        -1.26662
C          1.45712        10.62474        -1.79144
C          1.51467        11.93727        -2.09837
C          2.65717         9.84807        -1.52222
C          2.83301        12.61705        -2.36719
C          1.66798        14.85441        -2.58085
C          1.66832        16.24588        -2.57654
C          2.81357        14.12260        -2.22847
C          2.83890        16.95846        -2.25233
C          2.86366        18.39407        -2.26709
C          3.69063         1.92855        -0.25998
C          3.67340         3.40849        -0.16258
C          4.92236         1.26339        -0.14798
C          4.96508         4.10809        -0.51578
C          3.70324         6.28518        -0.54321
C          3.66931         7.79661        -0.44559
C          4.92002         5.59899        -0.27244
C          5.01581         8.43130        -0.60115
C          3.89424        10.55808        -1.41439
C          3.97357        11.93873        -1.63740
C          5.16827         9.77226        -1.27040
C          5.16688        12.67216        -1.34677
C          4.00389        14.80706        -1.89238
C          4.02298        16.23588        -1.91826
C          5.19324        14.08975        -1.48752
C          5.22554        16.95305        -1.64013
C          4.01013        19.07943        -1.97824
C          5.22505        18.38056        -1.66380
C          6.15139         1.96540         0.08618
C          6.15820         3.39227         0.06084
C          7.35542         1.26380         0.34998
C          7.32587         4.10660         0.37842
C          6.11307         6.29403        -0.03288
C          6.15285         7.74181        -0.23401
C          7.32618         5.57553         0.30609
C          7.41845         8.45130        -0.18777
C          6.32521        10.57319        -0.73546
C          6.32468        11.97029        -0.82645
C          7.48677         9.85592        -0.31315
C          7.49190        12.71037        -0.41892
C          6.37863        14.82318        -1.16987
C          6.42605        16.25644        -1.30919
C          7.50345        14.13469        -0.62408
C          7.64154        16.98137        -1.10398
C          6.40138        19.08160        -1.35207
C          7.63051        18.43510        -1.10398
C          8.56317         1.95271         0.57456
C          8.51752         3.37677         0.60998
C          9.81647         1.26501         0.82358
C          9.75412         4.08537         0.95497
C          8.50499         6.27552         0.49907
C          8.62079         7.69449         0.10010
C          9.71491         5.58349         0.96591
C          9.88239         8.50954         0.50314
C          8.65971        10.60065         0.12082
C          8.62704        12.04256         0.09655
C          9.77984         9.95109         0.63507
C          9.80227        12.76800         0.52067
C          8.66161        14.86953        -0.30112
C          8.78295        16.22238        -0.68188
C          9.75578        14.23474         0.44368
C         10.10095        16.77479        -0.68487
C          8.72756        19.27856        -0.68942
C         10.06914        18.90164        -0.76563
C         11.04552         1.91946         0.91162
C         11.05712         3.39886         0.59380
C         12.29811         1.26004         1.04701
C         12.26630         4.14907         1.13332
C         10.99449         6.34519         0.85386
C         10.87034         7.75911         1.38077
C         12.29114         5.62573         0.89233
C         12.20539         8.48122         1.48741
C         10.82283        10.69953         1.45091
C         10.95098        12.14677         1.00866
C         12.17955         9.97359         1.51948
C         12.19147        12.86012         1.25071
C         11.02993        15.01821         0.72698
C         11.17533        16.33338         0.07408
C         12.26487        14.28601         1.04159
C         12.39077        17.08821         0.21918
C         11.23710        19.36118        -0.12139
C         12.39622        18.54600         0.06888
C         13.54328         1.93698         1.10128
C         13.55718         3.41473         1.27578
C         14.78045         1.27979         1.08598
C         14.82345         4.16218         1.10336
C         13.52781         6.39768         1.14835
C         13.46960         7.75867         1.19621
C         14.83384         5.66230         1.36126
C         14.66315         8.59371         0.90866
C         13.44764        10.73140         1.33331
C         13.39790        12.14370         1.44902
C         14.66432        10.05248         1.17327
C         14.66088        12.82280         1.92694
C         13.45848        15.01864         1.11023
C         13.52831        16.41510         0.75326
C         14.63965        14.35461         1.72654
C         14.78618        17.14067         0.89732
C         13.60976        19.23178         0.31205
C         14.81034        18.57656         0.62001
C         16.01838         1.99788         1.08768
C         15.98899         3.45744         0.99639
C         17.25402         1.36141         1.18302
C         17.27429         4.14626         0.71852
C         16.00234         6.39673         0.77428
C         15.96012         7.87253         0.66803
C         17.22153         5.69051         0.48301
C         17.19356         8.67767         0.70570
C         15.91637        10.77942         1.11176
C         15.93146        12.13877         1.41878
C         17.16964        10.05155         0.86367
C         17.21933        12.83297         1.60920
C         15.93103        15.11915         1.75731
C         15.95983        16.51284         1.26263
C         17.23074        14.36427         1.80758
C         17.21293        17.30305         1.58291
C         16.02732        19.29492         0.64627
C         17.25599        18.67625         0.95096
C         18.51248         2.07617         1.22458
C         18.51643         3.50105         1.08496
C         19.72219         1.36746         1.18340
C         19.80579         4.26946         0.87514
C         18.50703         6.45328         0.57844
C         18.47980         7.95136         0.62010
C         19.63882         5.75444         1.22707
C         19.65655         8.73785         1.16005
C         18.42336        10.80931         0.82420
C         18.44979        12.12970         1.15654
C         19.69255        10.06499         0.38350
C         19.71218        12.90016         1.03258
C         18.43880        15.12184         1.47110
C         18.47179        16.50942         1.33053
C         19.68171        14.36758         1.19084
C         19.68431        17.20261         1.07314
C         18.48150        19.32644         0.80978
C         19.73073        18.62806         0.93516
C         21.02602         2.02657         1.28842
C         21.05355         3.53489         1.39846
C         22.25192         1.34394         0.86312
C         22.37527         4.17217         1.09151
C         20.69197         6.58977         1.62744
C         20.90823         7.91203         1.22841
C         22.57521         5.49919         1.45143
C         22.26337         8.57415         1.45182
C         21.02433        10.77046         0.64639
C         21.06075        12.20277         1.03555
C         22.28147         9.90963         0.67471
C         22.26518        12.79580         1.79708
C         20.92534        15.07900         1.63525
C         20.94736        16.44075         0.98141
C         22.24118        14.32040         1.57401
C         22.23910        17.16792         0.87609
C         20.96567        19.31398         0.85373
C         22.22839        18.64735         0.82983
C         23.40242         2.02447         0.42112
C         23.45599         3.47478         0.50981
C         24.54021         1.35468        -0.09039
C         24.61657         4.20737         0.12684
C         23.57125         6.34782         0.89498
C         23.50181         7.77327         0.94180
C         24.64268         5.64972         0.25866
C         24.58416         8.50140         0.38504
C         23.52988        10.70628         1.02942
C         23.58346        12.03217         1.42120
C         24.68924         9.94890         0.57898
C         24.97058        12.57736         1.63076
C         23.29470        15.13790         1.87076
C         23.48298        16.47787         1.33415
C         25.24019        14.02941         1.79998
C         24.70750        17.00048         1.02146
C         23.47200        19.23070         0.71737
C         24.64199        18.36293         0.30846
C         25.67537         2.06653        -0.58181
C         25.70704         3.51633        -0.46940
C         26.76444         1.40490        -1.15459
C         26.87506         4.22995        -0.88384
C         25.74887         6.40255        -0.18767
C         25.70903         7.80668        -0.16440
C         26.96888         5.67027        -0.57626
C         26.77034         8.56168        -0.86876
C         25.87583        10.61083         0.28983
C         26.15862        11.84437         1.00682
C         26.82679        10.07458        -0.68639
C         27.43584        12.59771         0.71528
C         26.16672        14.79763         1.17086
C         26.11006        16.34366         1.24170
C         27.41973        14.10004         0.74370
C         27.09059        16.90171         0.15649
C         25.94592        19.09379         0.36145
C         27.13392        18.41877         0.24310
C         27.81609         2.15044        -1.91914
C         27.95298         3.59125        -1.49119
C         29.15241         1.46801        -2.02539
C         29.09310         4.32834        -1.97991
C         28.12050         6.45892        -1.20400
C         27.97450         7.90300        -1.36191
C         29.08485         5.73196        -2.00817
C         29.09772         8.64555        -1.83367
C         28.04859        10.89456        -1.10076
C         28.56571        11.79397         0.04966
C         29.17269        10.04312        -1.66034
C         29.72975        12.69388        -0.43622
C         28.55845        14.87386         0.19700
C         28.46114        16.25236         0.20989
C         29.72669        14.17205        -0.28375
C         29.66944        17.05342         0.07959
C         28.35354        19.14352         0.09991
C         29.59013        18.51342        -0.08801
C         30.25768         2.18272        -2.37630
C         30.21964         3.61292        -2.50545
C         31.32204         4.36803        -3.02089
C         30.01084         6.50975        -2.90809
C         30.22851         7.90889        -2.36374
C         31.26207         5.72200        -3.19284
C         31.49203         8.55336        -2.39339
C         30.37117        10.77785        -2.19464
C         30.64818        12.11937        -1.52158
C         31.59926         9.91041        -2.23092
C         31.45758        13.05990        -2.29882
C         30.79226        14.90548        -0.83634
C         30.95656        16.32205        -0.48032
C         31.60753        14.34410        -1.88069
C         31.95391        17.19612        -1.09925
C         30.74858        19.22689        -0.45097
C         31.88793        18.56580        -0.96212
O          9.64233         4.81070         2.21331
O         12.30697         9.19375         2.77354
O         12.74189         3.82712         2.46715
O         10.31895        17.79369        -1.61075
O         25.84804        11.73483         2.43766
O         17.25066         4.74045        -0.65381
O         26.17622         9.51019        -1.86141
O         18.78191         7.25712        -0.63238
O          9.99023        14.90327         1.75209
O         21.03492         2.81355         2.63117
O         30.75541        16.61162         0.93331
O         28.11859         6.03744         0.23123
O          2.93600         3.92879         0.96433
O         11.70070         6.09990        -0.38465
O         31.01222        12.07286        -0.11471
O         19.67432        13.80710        -0.15676
O         21.64489        16.51215        -0.31205
O          9.73142         7.97476        -0.83430
O         15.08859        15.02142         2.96067
O         27.93600        13.27955         1.89389
O         17.37065        13.45962         2.94859
O         24.33679        14.65805         2.65702
O         21.72208         6.02544         2.40676
O         15.09345         8.30432        -0.48944
O         21.32855        11.82047        -0.35049
O          3.12300        12.38180        -3.79565
H          3.32185        11.42596        -3.89909
O         11.11878         3.48848        -0.85790
H         11.88794         2.96855        -1.17134
O         30.07612        11.11591        -3.60183
H         29.88940        10.27336        -4.06946
O         26.59618        16.77191         2.52242
H         26.10933        16.27610         3.21421
O          3.26772         8.07061         0.95677
H          2.52929         7.46105         1.17331
O         17.16762        17.52373         3.03075
H         16.27181        17.85181         3.25692
O         15.01821         5.72689         2.83810
H         14.27731         5.20593         3.22971
O         29.04697        10.88898         1.05042
H         29.34558        11.42538         1.81646
O         22.00660        12.54045         3.20058
H         22.80959        12.79278         3.70560
O         19.35104         9.08029         2.55065
H         20.20044         9.25027         3.01778
O         29.31781         6.70156        -4.21232
H         29.18492         5.81273        -4.60652
O         26.58339        16.50682        -1.14071
H         25.79440        17.07016        -1.36281
O         10.29792        10.74605         2.81072
H         10.97297        11.17655         3.37807
O         19.59907         9.80921        -1.02076
H         19.88444        10.62616        -1.48447
O          5.53905         9.44193        -2.67509
H          6.43811         9.04716        -2.65162
O          5.08182         3.94683        -1.97372
H          5.95593         4.29781        -2.24675
O         10.28197         7.65507         2.68757
H         10.60672         8.42626         3.21392
O         27.29608         2.20484        -3.32082
H         26.39031         2.58046        -3.27525
O         20.02999         4.27518        -0.57243
H         19.19950         4.61033        -0.99508
O         14.66982        12.57388         3.36171
H         15.32129        13.20868         3.74778
O         27.59578        11.81576        -2.12427
H         27.15057        11.28203        -2.81902
O         22.40182         8.84802         2.86568
H         22.40354         7.98094         3.32935
O         24.38766        18.05391        -1.12560
H         23.51219        17.60712        -1.17995
O         22.43407         9.49086        -0.70637
H         22.30050        10.28522        -1.26914
O         20.73425        15.33750         3.05946
H         20.73741        14.47373         3.52861
H          0.34874         1.39290        -0.85450
H          0.27182         3.83286        -1.03029
H          2.44897         0.16049        -0.43574
H          0.44155         5.78634        -1.48415
H          0.58287         8.14648        -2.07343
H          0.47752        10.13930        -1.67345
H          0.57884        12.48822        -2.26837
H          0.75072        14.33027        -2.88103
H          0.75733        16.79674        -2.85108
H          1.93871        18.93400        -2.51682
H          4.94092         0.16316        -0.17383
H          4.02210        20.17898        -1.98913
H          7.34204         0.16393         0.36578
H          6.36914        20.18133        -1.32741
H          9.78486         0.16984         0.93320
H          8.47027        20.26215        -0.26758
H         12.30776         0.15897         1.07089
H         11.28046        20.39684         0.24985
H         14.80826         0.18001         1.06094
H         13.62634        20.32511         0.18859
H         17.28606         0.26416         1.25591
H         16.02037        20.35072         0.33406
H         19.69613         0.27497         1.05158
H         18.49763        20.38335         0.50110
H         22.20256         0.25295         0.72203
H         20.95275        20.41056         0.76547
H         24.53898         0.25639        -0.14716
H         23.58328        20.32400         0.66414
H         26.73652         0.30824        -1.24718
H         25.93740        20.19383         0.40489
H         29.20019         0.37366        -1.92727
H         28.30167        20.24275         0.05359
H         31.21363         1.66859        -2.56032
H         32.23334         3.82454        -3.31441
H         32.10847         6.23626        -3.67053
H         32.40113         7.96269        -2.57634
H         32.58227        10.39830        -2.29741
H         31.95042        12.70464        -3.21426
H         32.28191        15.01131        -2.43504
H         32.79105        16.75631        -1.65883
H         30.71090        20.32552        -0.47793
H         32.70844        19.17961        -1.36112
