         344
 CSIRO Nanostructure Databank - Neutral Graphene Oxide Data Set
C          1.23163         3.57453        -0.07191
C          0.03280         4.26079        -0.40822
C          1.27323         6.44811        -0.76363
C          0.04414         5.58218        -0.73123
C          1.01461         7.78695         0.06903
C         -0.13690         8.52926        -0.57019
C          1.21730        10.50698        -1.21002
C         -0.07508         9.76165        -1.07651
C          1.18233        11.93497        -0.68891
C          0.00899        12.60341        -0.34127
C          1.18594        14.76040        -0.18640
C          0.00823        13.97445        -0.06473
C          1.15597        16.19058        -0.07175
C          0.03882        16.91872         0.41507
C          1.05029        19.15739        -0.20167
C         -0.01510        18.28824         0.42405
C          1.18369        20.50242         0.54231
C         -0.06238        21.34151         0.41847
C          1.25609        23.39763         0.63954
C         -0.01076        22.68095         0.53678
C          1.26832        24.78135         1.03716
C          0.15788        25.49800         1.45895
C          1.35467        27.63520         1.57939
C          0.22671        26.87618         1.83769
C          1.46036        29.05526         1.75561
C          3.63543         3.52814         0.25577
C          2.46058         4.22737        -0.05686
C          3.44796         6.37715         0.73482
C          2.62731         5.69327        -0.40893
C          3.57140         7.85749         0.38277
C          2.33034         8.55917         0.01803
C          3.71613        10.45462        -0.86599
C          2.38913         9.78204        -0.58906
C          3.63151        11.95789        -0.85825
C          2.42802        12.65148        -0.67697
C          3.66503        14.80025        -0.49808
C          2.41660        14.08063        -0.47604
C          3.63453        16.26662        -0.10281
C          2.35379        16.95372        -0.59540
C          3.54654        19.13821        -0.27284
C          2.37094        18.43317        -0.25941
C          3.56098        20.59817        -0.23221
C          2.42534        21.28572         0.13253
C          3.71843        23.43988         0.19702
C          2.44137        22.72170         0.30910
C          3.77190        24.78778         0.54296
C          2.60314        25.46196         1.21045
C          3.65214        27.72908         0.43584
C          2.47519        26.94087         0.89855
C          3.75120        29.16197         0.80867
C          2.58097        29.76735         1.39963
C          6.07580         3.56135         0.43762
C          4.86665         4.19960         0.48265
C          6.08750         6.39358         0.56957
C          4.83630         5.65665         1.02722
C          6.05956         7.80308         0.38284
C          4.79191         8.50021         0.29504
C          6.10564        10.66154        -0.13889
C          4.77247        10.00937         0.15398
C          6.13423        12.00496        -0.50367
C          4.91269        12.68972        -1.10443
C          6.13275        14.86685        -0.87424
C          4.84923        14.14275        -0.72546
C          6.12689        16.36284        -0.78972
C          4.86204        17.06429        -0.48353
C          6.05536        19.20779        -0.49726
C          4.82235        18.43125        -0.41578
C          6.05775        20.55978        -0.64964
C          4.76768        21.33791        -0.78106
C          6.14996        23.43970        -0.36720
C          4.89716        22.75118        -0.23667
C          6.22387        24.87155        -0.11630
C          5.06501        25.55705         0.55924
C          6.13711        27.78125        -0.17504
C          4.89882        26.99279         0.05340
C          6.15471        29.23340         0.14621
C          4.93843        29.84468         0.65063
C          8.58554         3.52112         0.59039
C          7.31600         4.22892         0.96857
C          8.53222         6.36565         0.33505
C          7.29944         5.69478         0.57915
C          8.52319         7.78656         0.22133
C          7.29226         8.50818         0.24465
C          8.55936        10.62423        -0.00491
C          7.31846         9.93763         0.06019
C          8.57278        12.05426        -0.15130
C          7.36313        12.74146        -0.44150
C          8.59389        14.88459        -0.43615
C          7.39598        14.15802        -0.59337
C          8.58924        16.33969        -0.40958
C          7.38905        17.03564        -0.46840
C          8.62947        19.22990        -0.21242
C          7.31981        18.47301        -0.22578
C          8.62161        20.64391        -0.60769
C          7.32323        21.28602        -1.05513
C          8.55633        23.47141        -1.07415
C          7.31681        22.75358        -0.73864
C          8.59417        24.96580        -0.86962
C          7.37370        25.60560        -0.33818
C          8.59837        27.75329        -0.35397
C          7.42539        27.05074        -0.20421
C          8.56187        29.25452        -0.56078
C          7.34352        29.89837         0.06607
C         11.01114         3.47808         0.26161
C          9.75212         4.18561         0.31888
C         10.97118         6.32698        -0.02704
C          9.76305         5.64518         0.21134
C         10.97704         7.73981        -0.04972
C          9.76851         8.47226         0.08666
C         11.03000        10.59887         0.10978
C          9.78773         9.90142         0.04657
C         11.00437        12.05206         0.32416
C          9.77954        12.78829        -0.02225
C         11.07540        14.91402        -0.12348
C          9.81536        14.18661        -0.17437
C         11.08276        16.33223        -0.26559
C          9.84623        17.05888        -0.31580
C         11.10158        19.18403        -0.43450
C          9.87161        18.46180        -0.35308
C         11.08805        20.60703        -0.55195
C          9.83561        21.29272        -0.74602
C         11.16010        23.49298        -0.85978
C          9.86232        22.72614        -1.10182
C         11.10986        24.95946        -0.63007
C          9.88891        25.65489        -0.64609
C         11.08406        27.77962        -0.39930
C          9.86489        27.05811        -0.44610
C         11.05628        29.23456        -0.20112
C          9.86041        29.91336        -0.18322
C         13.45740         3.45199         0.24696
C         12.21532         4.12258         0.05934
C         13.51211         6.26837        -0.11365
C         12.21896         5.55156        -0.43233
C         13.54368         7.71809        -0.28832
C         12.22904         8.48774        -0.28085
C         13.50360        10.64321         0.06764
C         12.25758         9.93332         0.02896
C         13.55736        12.03264         0.09364
C         12.32166        12.79726         0.29176
C         13.54695        14.92555        -0.00670
C         12.30418        14.23557         0.00299
C         13.54088        16.32730        -0.08959
C         12.32194        17.03655        -0.24994
C         13.55626        19.19992        -0.35986
C         12.32912        18.47185        -0.36948
C         13.54176        20.58382        -0.28944
C         12.31808        21.33791        -0.41817
C         13.46983        23.52388         0.23268
C         12.33781        22.74702        -0.40921
C         13.57605        24.96224        -0.23770
C         12.32707        25.67124        -0.44941
C         13.58598        27.85257        -0.65648
C         12.30492        27.08781        -0.44385
C         13.53605        29.26338        -0.10336
C         12.30628        29.90708         0.02651
C         15.91573         3.45893         0.46129
C         14.68182         4.13314         0.26098
C         15.95335         6.29185         0.21025
C         14.69413         5.58479         0.12294
C         15.96933         7.73260         0.14444
C         14.78545         8.43064         0.00318
C         16.00398        10.57575        -0.33761
C         14.79784         9.90706         0.30806
C         16.03691        12.06068        -0.05972
C         14.80906        12.76542         0.02463
C         16.04598        14.88825         0.03291
C         14.80362        14.18547         0.05642
C         16.07336        16.31874         0.03639
C         14.79566        17.10442         0.21435
C         16.10875        19.17932        -0.22464
C         14.84276        18.42052        -0.55213
C         16.09854        20.65335        -0.54066
C         14.81449        21.30282        -0.05045
C         16.05974        23.52334         0.00439
C         14.79796        22.77454         0.18162
C         16.04437        24.92184         0.03675
C         14.78033        25.64331        -0.13625
C         15.98188        27.78855        -0.01469
C         14.82487        27.09231        -0.24140
C         15.99669        29.25039         0.02263
C         14.75589        29.93879         0.08872
C         18.37221         3.45634         0.72920
C         17.12939         4.15091         0.53192
C         18.40550         6.29529         0.50587
C         17.15260         5.58834         0.41303
C         18.45081         7.72156         0.40281
C         17.23543         8.46080         0.22828
C         18.50540        10.56363         0.10144
C         17.27230         9.84739         0.05608
C         18.51628        11.99987         0.00071
C         17.26759        12.73898        -0.04129
C         18.52140        14.88001        -0.01348
C         17.27881        14.16924         0.00191
C         18.52701        16.30930        -0.01691
C         17.27732        17.01691         0.00531
C         18.54328        19.18178         0.10003
C         17.28227        18.48463        -0.01689
C         18.51696        20.65307         0.45165
C         17.31214        21.39331        -0.05338
C         18.53503        23.51931         0.19071
C         17.29451        22.79127         0.05136
C         18.49822        24.93334         0.27510
C         17.27595        25.62158         0.18689
C         18.46799        27.80957        -0.09342
C         17.24938        27.10616         0.44057
C         18.46232        29.20987        -0.14045
C         17.22155        29.91910         0.05115
C         19.55844         4.13410         0.79797
C         20.83944         6.26847         0.74500
C         19.60587         5.56574         0.68549
C         20.88461         7.64106         0.61540
C         19.69732         8.40819         0.43771
C         20.93717        10.58564         0.30729
C         19.72350         9.84586         0.28954
C         20.94604        11.95713         0.17031
C         19.74105        12.70286         0.03519
C         20.95240        14.89535        -0.07576
C         19.75374        14.15800        -0.02542
C         20.95381        16.28752        -0.08030
C         19.75690        17.02703        -0.03353
C         20.97644        19.24271         0.08445
C         19.74891        18.48892         0.05657
C         20.99454        20.61867         0.09904
C         19.80329        21.39590         0.17584
C         21.00166        23.58519         0.04673
C         19.78289        22.79951         0.14500
C         21.00787        24.93021         0.14991
C         19.77423        25.74527         0.42504
C         20.90508        27.81596        -0.63701
C         19.65784        26.99512        -0.51148
C         20.87704        29.18920        -0.59756
C         19.67869        29.90522        -0.39364
O         12.88271         8.16741        -1.57213
O          6.14950        15.68253        -2.11826
O          8.41922        24.39530        -2.21595
O          4.98653         5.52939         2.41425
O         11.64568        12.47740         1.57620
O         14.91952        21.81682         1.32204
O         10.71818        23.07305        -2.21932
O          2.56343        27.36416        -0.49223
O          5.29381        27.31799        -1.30704
O          7.91297        18.91526         1.05129
O          4.33338        10.54647         1.43551
H          4.83578        10.09478         2.14566
O         16.04979        20.75868        -2.01321
H         16.93910        20.52684        -2.35663
O          0.63851        19.42684        -1.57044
H          0.94338        18.67250        -2.12303
O         14.90821        18.11355        -1.97320
H         15.05674        18.96954        -2.43862
O          2.88453        25.42357         2.67250
H          2.76073        24.49664         2.96929
O         17.27683        27.28230         1.90438
H         16.44188        26.90845         2.25777
O         19.37417        26.42917        -1.83745
H         19.31284        27.17370        -2.47272
O          7.25852         4.16514         2.42696
H          6.42168         4.66604         2.68052
O          3.55440        16.30060         1.35121
H          4.35020        15.86276         1.71819
O          0.54706         7.52620         1.38757
H          1.27595         7.10978         1.91489
O         19.88741        26.27062         1.76611
H         19.81249        25.52493         2.39632
O         15.86201        10.42979        -1.77848
H         16.64516        10.83603        -2.20466
O          4.16898        10.01727        -2.17138
H          3.58103        10.45276        -2.83060
O          2.28943        16.89194        -2.05137
H          2.34538        15.94863        -2.31791
O          1.38483         6.93991        -2.12469
H          1.72776         6.19729        -2.66974
O          5.13924        12.66382        -2.56512
H          5.73180        13.41542        -2.78748
O          7.30609        21.19851        -2.54020
H          7.93792        21.86786        -2.88686
O          2.70609         6.22413         1.95210
H          3.40591         5.95636         2.62846
O          1.50149        10.61908        -2.64875
H          1.33577         9.73241        -3.03634
O         18.37148        20.67550         1.93695
H         17.46144        20.36832         2.14230
O         12.16660         5.48072        -1.89729
H         12.33084         6.40073        -2.22066
O         15.01979        10.00987         1.75203
H         14.18404         9.78568         2.21221
O          8.41667        29.45535        -2.01392
H          7.60194        28.98388        -2.29349
O         13.70000        28.00751        -2.11537
H         12.89027        28.46696        -2.42511
O          4.51712        21.49498        -2.21834
H          5.39921        21.53461        -2.66352
O         13.09212        23.63871         1.64508
H         13.48867        22.85330         2.09389
O          1.32550        20.15374         1.95172
H          1.35917        20.98754         2.46499
O          5.47077        25.71268         1.96740
H          4.64639        25.69890         2.51942
O         14.71623        17.46786         1.62720
H         14.64968        16.64095         2.14931
O          3.47382         5.71988        -1.58142
H          3.72405         6.65508        -1.74801
H          1.19060         2.50346         0.17503
H         -0.91312         3.70042        -0.42371
H         -0.89647         6.05917        -1.04371
H         -1.11598         8.02971        -0.51010
H         -0.97825        10.23015        -1.49782
H         -0.94495        12.05800        -0.31428
H         -0.94701        14.46121         0.17518
H         -0.81244        16.36104         0.83561
H         -0.91427        18.77738         0.82703
H         -1.03368        20.83531         0.32102
H         -0.94088        23.26672         0.51606
H         -0.82828        25.01344         1.49751
H         -0.67266        27.35294         2.25477
H          0.61068        29.58583         2.21150
H          3.57412         2.44457         0.45154
H          2.61133        30.85003         1.59463
H          6.14980         2.55716        -0.01240
H          4.98799        30.90534         0.94307
H          8.60625         2.42621         0.70771
H          7.39516        30.96505         0.33595
H         11.00843         2.40547         0.51258
H          9.85996        31.00200        -0.01757
H         13.44433         2.37269         0.46555
H         12.28411        30.97376         0.29911
H         15.91376         2.36284         0.55985
H         14.75121        31.01588         0.31603
H         18.35302         2.36046         0.82069
H         17.24013        31.01851         0.08306
H         20.50174         3.58730         0.94273
H         21.77041         5.70028         0.88595
H         21.86088         8.14279         0.65389
H         21.89576        10.06503         0.43448
H         21.91187        12.47886         0.19739
H         21.91990        14.37693        -0.10868
H         21.92287        16.80304        -0.10980
H         21.93644        18.71182         0.03899
H         21.96900        21.12446         0.04481
H         21.95840        23.06109        -0.09061
H         21.97008        25.46322         0.12836
H         21.84555        27.30038        -0.87802
H         21.81023        29.75171        -0.74903
H         19.68496        31.00367        -0.39944
