         244
 CSIRO Nanostructure Databank - Neutral Graphene Oxide Data Set
C          1.34470         1.70563        -0.98253
C          1.17769         3.10789        -0.72517
C          2.50964         1.08161        -0.67641
C          2.18905         3.89516        -0.23907
C          1.25648         6.26253        -0.54423
C          1.36015         7.68821        -0.29583
C          1.95746         5.29028         0.10841
C          2.39545         8.39654         0.25350
C          1.27335        10.64420         0.80760
C          1.30639        11.99224         0.90219
C          2.36208         9.91144         0.04907
C          2.46269        12.76886         0.45662
C          1.38180        15.01862         1.03409
C          1.44468        16.36767         1.21143
C          2.36166        14.26213         0.16937
C          2.52867        17.16491         0.71867
C          2.59809        18.55096         0.81815
C          3.63476         1.81247        -0.07261
C          3.53284         3.32987         0.13051
C          4.96256         1.20921        -0.16773
C          4.82172         4.12220         0.00802
C          3.80790         6.29592         0.65723
C          3.67053         7.76992         0.69794
C          4.83575         5.59378         0.09908
C          4.94716         8.52917         0.54249
C          3.68348        10.63246         0.23287
C          3.62681        12.09563         0.18073
C          4.87683         9.98356         0.30446
C          4.86080        12.81328        -0.22302
C          3.69908        14.96895         0.15848
C          3.64273        16.46422        -0.02650
C          4.89817        14.29220        -0.08929
C          4.94902        17.15849         0.27132
C          3.74739        19.28414         0.43606
C          4.96819        18.63917         0.14795
C          6.09882         1.98803        -0.14890
C          6.00800         3.44521        -0.23749
C          7.37453         1.35876         0.04450
C          7.25826         4.16017        -0.65200
C          5.96084         6.43627        -0.50770
C          6.15968         7.79250         0.14151
C          7.27045         5.66006        -0.68927
C          7.35451         8.50030        -0.07747
C          6.17204        10.72077         0.46900
C          6.15517        12.06255        -0.23793
C          7.39834         9.92397         0.10407
C          7.43629        12.79960        -0.20573
C          6.13925        14.95849        -0.21487
C          6.23031        16.39001         0.07650
C          7.38025        14.23801        -0.68240
C          7.44493        17.15066        -0.24554
C          6.19459        19.29187        -0.04257
C          7.42663        18.59247        -0.21201
C          8.57541         2.04830        -0.03211
C          8.59045         3.38314        -0.73650
C          9.80610         1.43040         0.25866
C          9.81596         4.22242        -0.41428
C          8.57405         6.38076        -0.56872
C          8.57895         7.79976        -0.40154
C          9.77439         5.65031        -0.55808
C          9.82250         8.52614        -0.32738
C          8.60264        10.64387         0.03313
C          8.59811        12.11873         0.02143
C          9.82077         9.93610        -0.12606
C          9.87951        12.87441         0.30118
C          8.63782        15.01823        -0.40128
C          8.62607        16.42909        -0.46076
C          9.86673        14.30826        -0.20325
C          9.92526        17.15857        -0.73409
C          8.65476        19.29802        -0.30669
C          9.89908        18.64125        -0.42286
C         11.03131         2.12998         0.14731
C         10.99921         3.56091        -0.10849
C         12.25954         1.46730         0.35115
C         12.26599         4.32223         0.19318
C         11.05968         6.38487        -0.85856
C         11.06045         7.83837        -0.45856
C         12.31220         5.68245        -0.43191
C         12.30924         8.52505        -0.40839
C         11.10748        10.65007         0.18169
C         11.12862        12.12736        -0.11679
C         12.35080         9.93502        -0.25298
C         12.29902        12.79894        -0.20777
C         11.06304        14.99229        -0.18287
C         11.07120        16.48507         0.00434
C         12.33105        14.26430         0.16352
C         12.38979        17.16696        -0.25961
C         11.12584        19.30291        -0.34471
C         12.38773        18.60137        -0.34463
C         13.50769         2.12522         0.13030
C         13.49741         3.51025        -0.13309
C         14.75469         1.43612         0.31988
C         14.70799         4.19054        -0.54017
C         13.53534         6.36250        -0.55907
C         13.54318         7.81915        -0.56823
C         14.75171         5.64480        -0.60163
C         14.75403         8.51796        -0.44923
C         13.56292        10.62998        -0.30466
C         13.58980        12.10973        -0.58015
C         14.78422         9.92550        -0.32103
C         14.83366        12.80426        -0.06418
C         13.56170        14.95923        -0.43016
C         13.57745        16.45091        -0.20579
C         14.83615        14.25104        -0.02327
C         14.82757        17.12835        -0.18583
C         13.61856        19.26655        -0.42962
C         14.85014        18.55510        -0.34636
C         15.99063         2.08286         0.25205
C         16.06701         3.43322        -0.34048
C         17.20821         1.49198         0.68766
C         17.29131         4.24053        -0.15818
C         16.04513         6.31704        -0.70630
C         16.04860         7.81832        -0.55742
C         17.29330         5.60653        -0.36540
C         17.20632         8.43619         0.19160
C         16.04636        10.63350        -0.10901
C         16.01361        12.08357         0.07917
C         17.22154         9.93916         0.05878
C         17.25690        12.77094         0.37184
C         15.98444        14.95932         0.26097
C         16.03592        16.40255         0.06642
C         17.15100        14.19964         0.86637
C         17.25738        17.09039         0.06239
C         16.10205        19.19557        -0.47876
C         17.30850        18.47219        -0.33444
C         18.43833         2.17411         0.64967
C         18.50801         3.55223         0.23549
C         19.66150         1.53229         1.02993
C         19.72824         4.22715         0.17725
C         18.52494         6.38150        -0.27125
C         18.52154         7.74731        -0.10085
C         19.80297         5.60319        -0.45731
C         19.76030         8.51717        -0.04469
C         18.47094        10.60589         0.56785
C         18.45994        12.10533         0.40581
C         19.74612         9.90950         0.14650
C         19.72945        12.81830         0.52416
C         18.48002        14.94747         0.85045
C         18.51103        16.42357         0.46714
C         19.73877        14.19695         0.73665
C         19.79025        17.01727         0.04185
C         18.56692        19.06928        -0.59775
C         19.77794        18.33484        -0.51448
C         20.86165         2.20003         0.98009
C         20.93557         3.56021         0.54241
C         22.15578         4.27628         0.51122
C         21.04144         6.37860        -0.08682
C         21.01225         7.80896        -0.12457
C         22.19182         5.65114         0.24921
C         22.20771         8.57775        -0.13081
C         20.96111        10.66613         0.15533
C         20.95586        12.08257         0.36702
C         22.18195         9.95036        -0.03836
C         22.18899        12.83028         0.42452
C         21.01602        14.98213         0.96608
C         21.00481        16.32067         0.21259
C         22.23631        14.15804         0.68101
C         22.19820        16.93201        -0.19707
C         21.01166        18.92102        -0.90998
C         22.19563        18.22203        -0.75493
O         15.46292         3.55010        -1.63671
O         18.49825        15.98794         1.90246
O         10.01628        12.97862         1.73591
O          5.65884        16.69549         1.43063
O          7.12562         4.88643        -1.94464
O          3.41847         2.41962         1.26286
O         16.28176         7.24191        -1.85643
O          5.40530        12.23594        -1.49031
O          4.35899         8.26626         1.90115
O          2.72227         5.64090         1.24168
O         16.80813        14.02357         2.28018
H         17.01686        14.87942         2.72101
O         12.27731         4.55761         1.66452
H         12.17788         3.68223         2.09667
O          8.76752         2.99753        -2.13199
H          8.47587         3.76742        -2.67363
O          6.28940        11.03901         1.89093
H          7.18957        11.39795         2.05224
O         10.20025        17.01572        -2.15338
H          9.41643        17.32710        -2.65189
O         16.92533         8.17100         1.60478
H         17.51197         8.78079         2.12191
O         19.92898         5.34891        -1.90580
H         19.09725         4.91870        -2.19998
O         10.83199        16.65670         1.43077
H         11.41511        16.00642         1.89703
O         11.13438        10.59601         1.65718
H         10.66085        11.43439         1.97016
O          2.01268        10.08943        -1.36686
H          1.99807        11.05421        -1.54400
O         13.69308        12.16178        -2.04595
H         13.55837        13.11067        -2.30295
O         11.11833         6.41899        -2.34778
H         10.31619         6.89133        -2.65904
O         13.41087        14.82726        -1.88782
H         14.06702        15.41782        -2.31462
O         12.36888        14.31849         1.62046
H         11.54190        13.79802         1.90486
O          7.29527        14.15492        -2.15444
H          6.59062        13.48752        -2.34931
O          1.83628        14.34946        -1.22252
H          2.42425        13.80116        -1.78645
O         21.08014        15.33377         2.38322
H         20.21560        15.76202         2.60049
O          3.36960        16.67114        -1.45104
H          2.58159        16.11178        -1.66200
O         18.43602        10.40903         2.04955
H         17.84414        11.10093         2.42068
O          5.49145         6.80795        -1.84453
H          5.80201         6.09473        -2.45235
H          0.51496         1.14908        -1.43958
H          0.19721         3.56562        -0.92214
H          2.66800         0.02573        -0.94167
H          0.60331         5.96306        -1.37745
H          0.55195         8.28824        -0.74429
H          0.38627        10.08474         1.13951
H          0.45075        12.52300         1.34397
H          0.54319        14.46836         1.48342
H          0.66056        16.87034         1.79966
H          1.73727        19.10200         1.22740
H          5.04793         0.11300        -0.20900
H          3.72122        20.38252         0.48780
H          7.37998         0.29822         0.33999
H          6.21642        20.39211        -0.05399
H          9.81505         0.38119         0.59215
H          8.63943        20.39335        -0.19174
H         12.25443         0.39464         0.59352
H         11.14084        20.40000        -0.24636
H         14.71905         0.39564         0.67627
H         13.64282        20.36019        -0.54728
H         17.18792         0.45242         1.04823
H         16.14290        20.26802        -0.71887
H         19.62685         0.48343         1.35877
H         18.60347        20.12236        -0.91214
H         21.78983         1.68802         1.27335
H         23.08374         3.75967         0.79633
H         23.14522         6.17836         0.39981
H         23.17669         8.07266        -0.24399
H         23.13722        10.48859        -0.08012
H         23.14090        12.30201         0.27949
H         23.21805        14.64080         0.78600
H         23.15782        16.41080        -0.08616
H         21.01172        19.93191        -1.34168
H         23.14721        18.67616        -1.06472
