         260
 CSIRO Nanostructure Databank - Neutral Graphene Oxide Data Set
C         30.93548        31.88863        -3.14877
C         31.22035        33.03108        -3.62291
C         30.98252        36.86314        -2.70000
C         30.56354        37.67931        -1.81963
C         30.43883        40.98499         0.23355
C         30.28828        42.23409         0.23384
C         32.34867        29.33086        -0.72375
C         31.55919        29.99631        -1.42250
C         32.30895        32.22158        -1.35139
C         31.36782        31.31707        -1.94171
C         32.82724        33.40789        -1.90922
C         32.24007        33.87368        -3.12195
C         32.84188        36.18886        -1.42803
C         32.14890        36.07753        -2.65875
C         32.32376        37.04890        -0.43433
C         31.17272        37.83466        -0.56179
C         32.73917        40.34114         0.43846
C         31.37238        39.94022         0.38977
C         33.03303        41.74509         0.14740
C         31.23800        43.16175        -0.24003
C         32.96985        44.53122         0.43229
C         31.71073        44.36499         0.29395
C         35.13290        27.32803        -0.44120
C         34.92323        28.75306        -0.06421
C         33.85146        29.58506        -0.74116
C         35.18131        31.71369        -0.48304
C         34.00128        31.05642        -0.37872
C         35.28932        33.17608        -0.76443
C         34.16458        33.98552        -1.42174
C         35.29745        36.14828        -0.47190
C         34.17338        35.50329        -1.24107
C         35.24824        37.50673         0.16838
C         34.08934        38.09504         0.56261
C         35.12330        40.22132         1.09102
C         33.96006        39.54843         0.76593
C         34.96934        41.60667         1.68127
C         34.06338        42.45094         0.79273
C         35.15632        44.49885         1.69374
C         34.08807        43.87556         0.94721
C         35.52200        45.88493         1.62016
C         37.56416        27.21791        -0.05153
C         36.21650        26.77587        -0.15359
C         37.59800        28.73781        -0.26276
C         36.27596        29.45206         0.09173
C         37.62922        31.68765         0.30779
C         36.35782        30.96281         0.02518
C         37.71306        33.15416         0.01812
C         36.50307        33.86012        -0.22472
C         37.77836        36.07158         0.07986
C         36.47410        35.31945        -0.03648
C         37.80360        37.58673        -0.03242
C         36.50634        38.30334         0.19429
C         37.71686        40.38807         1.13237
C         36.45844        39.48729         1.17616
C         37.67042        41.67017         1.95575
C         36.27894        42.28135         2.10779
C         38.13282        44.83770         2.01527
C         36.14300        43.74082         2.30181
C         37.94158        46.13733         1.40744
C         36.56998        46.54092         1.53714
C         39.78600        24.44044         0.91534
C         38.82350        25.11589         0.50645
C         40.07296        27.11752         0.16317
C         38.69555        26.49960         0.20500
C         40.14899        28.66877         0.20663
C         38.83492        29.37576         0.39069
C         40.20665        31.53444         0.42014
C         38.87288        30.86604         0.56083
C         40.23275        33.02713         0.19598
C         38.95804        33.80077         0.14216
C         40.33533        35.99648         0.20083
C         39.04102        35.27020        -0.04188
C         40.36137        37.49284         0.43143
C         39.09467        38.28207         0.32654
C         40.30611        40.24519         1.42062
C         39.02546        39.69249         0.86770
C         40.28994        41.67466         1.88275
C         39.02967        42.51140         2.21575
C         40.22737        44.40502         0.86681
C         39.09031        43.92156         1.62030
C         40.26813        45.87836         0.45937
C         38.90241        46.60515         0.50987
C         39.81270        48.12904        -1.17904
C         38.95610        47.71782        -0.32593
C         42.27077        24.46359         1.65853
C         41.10598        24.97991         1.08766
C         42.48015        27.05801         0.87273
C         41.25334        26.35890         0.67739
C         42.61747        28.48760         0.38977
C         41.38925        29.31851         0.61008
C         42.68709        31.48854         0.51717
C         41.42264        30.79716         1.03370
C         42.79768        32.96963         0.45655
C         41.50906        33.72873         0.59814
C         42.80533        35.96243         0.66159
C         41.52227        35.22187         0.68617
C         42.82858        37.33360         0.89271
C         41.52846        38.04684         1.23823
C         42.83211        40.20395         1.64155
C         41.59978        39.55813         1.12484
C         42.85820        41.70553         1.55622
C         41.55943        42.44698         1.61234
C         42.48619        43.95580        -0.22041
C         41.40667        43.70041         0.82349
C         42.31893        45.29298        -0.96993
C         41.07011        46.10527        -0.82453
C         42.05907        47.57774        -2.43136
C         40.97285        47.46384        -1.54690
C         43.35761        25.07360         1.87655
C         45.51457        27.49776         0.80229
C         43.56393        26.41655         1.51269
C         45.35090        28.76768         0.19067
C         43.89402        29.24257         0.07168
C         45.55965        31.75374        -0.32225
C         43.62544        30.70288        -0.08539
C         45.36238        32.99890         0.51664
C         43.99010        33.67386         0.37035
C         45.33042        35.89051         0.88544
C         44.01738        35.16891         0.41797
C         45.11752        37.16609         1.53053
C         44.05894        38.00162         1.25437
C         45.47140        40.21127         1.49226
C         44.14715        39.45245         1.66378
C         45.38313        41.64320         0.98575
C         44.04435        42.30815         0.85768
C         45.06075        44.32920        -0.36037
C         43.88623        43.71805         0.33330
C         44.71267        45.01067        -1.73197
C         43.58860        46.02572        -1.50337
C         43.05068        46.83702        -2.69951
C         47.59803        27.43652         0.00275
C         46.68336        26.73716         0.53835
C         47.82626        28.77375        -0.27732
C         46.56074        29.46305        -0.24716
C         47.94829        31.63619        -0.09797
C         46.64047        30.92996        -0.18853
C         47.92037        33.12119         0.15042
C         46.62760        33.84752         0.36746
C         47.95744        35.99092         1.03183
C         46.65325        35.19914         1.02425
C         47.98050        37.48424         1.04497
C         46.99485        38.20441         1.65401
C         47.97655        40.37596         1.22882
C         46.70859        39.61111         1.40294
C         47.93898        41.87606         1.10671
C         46.61326        42.54578         0.85155
C         47.64200        44.39931        -0.77803
C         46.47884        43.84298         0.04609
C         47.09396        45.04912        -1.92521
C         46.02770        45.61745        -2.21483
C         50.36072        29.00872        -0.90455
C         49.19626        29.35176         0.02893
C         50.55700        31.57239         0.23286
C         49.23673        30.89102        -0.06720
C         50.51267        33.07221         0.50547
C         49.20469        33.79868         0.57056
C         50.40092        36.07192         0.12170
C         49.15790        35.30072         0.42129
C         50.41451        37.59586         0.29761
C         49.00001        38.23287         0.19523
C         50.31043        40.35478         0.36920
C         49.14809        39.67032         0.66552
C         50.38662        41.77560         0.66854
C         49.23793        42.49915         0.81598
C         50.06135        44.29812        -1.41236
C         48.97369        44.31977        -0.47598
C         51.37327        29.68411        -1.14104
C         52.75705        31.91492        -0.73913
C         51.62986        31.13030        -1.25341
C         52.88051        33.04073        -0.23690
C         51.82821        33.87690         0.37328
C         52.74132        36.29839        -0.35804
C         51.75787        35.35970         0.20748
C         52.65474        37.51858        -0.53825
C         51.36727        38.30849        -0.75466
C         51.86812        40.72304        -1.37813
C         51.34820        39.80030        -0.51481
C         52.16337        41.72667        -2.09058
C         51.94556        42.94626        -2.68475
C         51.01480        43.82586        -2.02580
O         40.33886        40.60563         2.87597
O         47.24105        33.82752        -0.94311
O         44.68579        27.12180         1.84836
O         37.02548        35.70014         1.27735
O         43.40459        39.68137         2.91448
O         48.71435        31.35513        -1.34807
O         41.32486        34.40872         1.89480
O         49.50519        35.66994        -0.95823
O         40.25535        27.89314        -1.05643
O         35.45840        29.04838         1.23293
O         41.16878        45.08763        -1.86173
O         38.73908        29.97326         1.71465
O         42.49558        42.47884         2.74122
O         35.24343        36.19074        -1.94537
O         32.49230        35.13781        -3.63232
O         35.24521        33.47795        -2.24224
O         32.85300        31.81875        -0.13603
O         49.83018        33.31076         1.78429
O         36.91880        41.51199         3.19093
O         44.45444        31.30893        -1.02442
O         40.07328        38.24009        -0.77259
O         49.35399        43.91987         0.82042
O         46.06422        37.55164         2.47774
O         44.58534        41.52883        -0.25917
O         39.92891        35.64964        -1.15132
O         44.47084        44.91802         0.85212
O         32.32769        42.38108        -0.88625
O         43.15302        28.53854        -1.00288
O         46.57303        43.85709         1.48637
O         37.17925        44.40827         2.96664
O         48.09182        41.21851         2.43687
O         32.99202        37.24410         0.78026
O         30.84107        38.65315         0.51374
O         37.14621        38.31470        -1.11276
O         47.43756        35.31993         2.22600
O         40.41084        32.06877        -0.91197
O         38.38680        40.58891        -0.12948
O         52.07294        34.75609         1.48624
O         44.91629        35.83574        -0.51553
O         36.65048        31.48960         1.38188
O         51.16046        31.67624        -2.41724
H         50.35826        31.19929        -2.71879
O         43.99134        46.95976        -0.52881
H         44.92655        47.20861        -0.68595
O         52.54329        43.32470        -3.83477
H         52.26778        44.22721        -4.08683
O         44.30309        44.00363        -2.62367
H         43.94375        44.41941        -3.43518
O         36.52288        38.84216         2.47766
H         36.54374        39.55323         3.16137
O         50.92346        38.01680        -2.06226
H         51.38600        38.60207        -2.69659
O         49.48327        28.91280         1.33885
H         50.33913        29.30911         1.62489
O         37.75553        28.98995        -1.67672
H         38.60909        28.58444        -1.96486
O         34.23774        29.52400        -2.13236
H         34.26659        28.57962        -2.40088
O         45.41755        32.53194         1.90133
H         44.53171        32.20482         2.16965
O         34.22266        41.45637         2.92546
H         34.83740        41.09467         3.60103
O         41.08213        46.52909         1.46754
H         40.73144        46.31478         2.35752
O         42.26626        42.89290        -1.17437
H         41.53804        43.17454        -1.77454
O         41.24761        37.75102         2.63298
H         41.89669        38.26087         3.17534
O         51.59075        42.41000         0.63680
H         51.42936        43.35719         0.83715
O         51.18258        30.95285         1.33483
H         51.89685        31.53194         1.67534
O         41.33974        30.91129         2.46670
H         40.46435        30.55745         2.74739
O         39.09198        42.72765         3.62376
H         39.35599        41.88181         4.04991
O         48.52475        38.24549        -1.16094
H         48.70312        37.35679        -1.55339
O         50.88938        37.88012         1.61472
H         51.79024        37.50468         1.71916
