         276
 CSIRO Nanostructure Databank - Neutral Graphene Oxide Data Set
C        -10.89911         0.61043        -1.28211
C         -9.76421         1.42315        -0.86564
C         -8.72709         0.79102         0.04452
C         -7.37188         1.47337        -0.00803
C         -6.19262         0.78980         0.33429
C         -4.98880         1.47354         0.57852
C         -3.73320         0.72854         0.86409
C         -2.55321         1.49251         1.44767
C         -1.23782         0.72502         1.39241
C         -0.06882         1.41895         1.39284
C          1.28861         0.74838         1.52695
C          2.28245         1.41923         0.56538
C          3.51084         0.66360         0.17875
C          4.64969         1.46692        -0.43083
C          5.87238         0.74552        -0.92362
C          7.04425         1.54977        -1.62673
C          8.35214         0.70848        -1.75854
C          9.65209         1.47531        -1.99199
C         10.90158         0.65265        -1.81153
C         -9.64350         2.71766        -1.26644
C         -8.46431         3.51824        -0.99521
C         -7.41823         2.99234        -0.04173
C         -6.06286         3.64547        -0.22338
C         -4.96333         2.98430         0.59058
C         -3.60004         3.53808         0.24834
C         -2.39588         2.83271         0.74623
C         -1.29405         3.66490         1.31928
C         -0.01507         2.92570         1.71054
C          1.15748         3.69606         1.05099
C          2.35568         2.91151         0.57069
C          3.68452         3.57113         0.44558
C          4.76909         2.89518        -0.05109
C          6.15959         3.44507        -0.03466
C          7.20661         2.97207        -1.04589
C          8.61709         3.43822        -0.79055
C          9.71831         2.79377        -1.23307
C         -8.31178         4.71688        -1.59914
C         -7.03775         5.51421        -1.63080
C         -5.87576         4.83418        -0.87388
C         -4.56893         5.54095        -0.78740
C         -3.52420         4.97711        -0.08524
C         -2.26876         5.71585         0.17368
C         -1.29302         5.14836         1.16309
C         -0.05624         5.97285         1.55398
C          1.23064         5.18702         1.27671
C          2.58642         5.77188         1.26290
C          3.79073         4.94706         0.97957
C          5.14932         5.62132         0.94780
C          6.34025         4.85701         0.43573
C          7.56631         5.67098        -0.09219
C          8.20879         4.83402        -1.21818
C         -7.26123         6.92772        -1.06259
C         -6.34730         7.89148        -1.31540
C         -4.36240         6.90915        -1.24297
C         -3.43345         7.77445        -0.73659
C         -2.27364         7.20933        -0.04687
C         -1.28052         8.08210         0.60119
C         -0.17244         7.50222         1.40862
C          0.77696         8.66722         1.71440
C          2.89288         7.01598         1.84100
C          3.88212         7.85216         1.13214
C          5.11691         7.10423         0.70248
C          6.46299         7.86951         0.56289
C          7.15486         7.05419        -0.48861
C         -6.13001         9.22277        -0.75212
C         -4.91383         9.81306        -0.65446
C         -3.54223         9.26037        -1.07547
C         -2.38668        10.09462        -0.46043
C         -1.13295         9.35722        -0.00492
C          0.11712         9.99139        -0.12728
C          1.27455         9.48033         0.56222
C          2.58048         9.86280         0.36978
C          3.79368         9.37467         1.17219
C          5.05660         9.98208         0.57842
C          6.17661         9.32438         0.24576
C        -10.99654        -0.71888        -1.06436
C         -9.95500        -1.48849        -0.28254
C         -8.65090        -0.69394        -0.25067
C         -7.40765        -1.42209         0.08879
C         -6.25915        -0.67408         0.66792
C         -5.07028        -1.46478         1.12435
C         -3.74895        -0.76635         1.04043
C         -2.52728        -1.52325         1.43052
C         -1.24972        -0.75351         1.78963
C         -0.02026        -1.48341         1.19337
C          1.28978        -0.76381         1.35937
C          2.45013        -1.43911         1.16008
C          3.63741        -0.74991         0.58657
C          5.00869        -1.37178         0.72229
C          6.11173        -0.60048        -0.23797
C          7.33208        -1.36820        -0.62411
C          8.40631        -0.76582        -1.48571
C          9.72409        -1.46429        -1.37176
C         10.92864        -0.66889        -1.55454
C         -9.68959        -2.87305        -0.84557
C         -8.54717        -3.53530        -0.57620
C         -7.50008        -2.90263         0.27999
C         -6.33406        -3.68939         0.78524
C         -5.05389        -3.01027         1.32275
C         -3.75981        -3.66154         0.78118
C         -2.52674        -2.87628         1.22908
C         -1.21491        -3.50441         0.93252
C         -0.00448        -2.96902         1.67696
C          1.29402        -3.73400         1.35297
C          2.53101        -2.92621         1.08962
C          3.74497        -3.54428         0.45873
C          4.92432        -2.86704         0.39312
C          6.29200        -3.53098         0.39534
C          7.29022        -2.86759        -0.55560
C          8.56213        -3.60743        -0.87700
C          9.77661        -2.80119        -1.11683
C         -8.13702        -4.82564        -1.23395
C         -7.46111        -5.81495        -0.26681
C         -6.29123        -5.18171         0.51639
C         -5.00607        -5.92717         0.70567
C         -3.75370        -5.17683         1.16603
C         -2.53636        -6.02976         1.47178
C         -1.12678        -5.64918         2.01880
C          0.18020        -6.19200         1.36877
C          1.28286        -5.18879         0.96318
C          2.42017        -5.75132         0.47002
C          3.57214        -4.93446        -0.14079
C          4.89976        -5.71587        -0.13973
C          6.24474        -5.03614         0.16195
C          7.49296        -5.74094        -0.23606
C          8.63863        -5.03808        -0.53807
C         -7.04036        -7.05385        -1.10185
C         -5.92565        -7.88258        -0.50559
C         -4.90601        -7.33054         0.21030
C         -3.82695        -8.26700         0.77646
C         -2.53819        -7.51496         1.14606
C         -1.24373        -8.12429         0.71260
C         -0.14941        -7.18113         0.21594
C          1.13481        -7.91357        -0.20412
C          2.42051        -7.20994         0.10151
C          3.54506        -8.14530         0.48791
C          5.08077        -6.95961        -0.88671
C          6.22257        -7.80435        -0.61951
C          7.42272        -7.17911        -0.29551
C         -5.92722        -9.31420        -0.81357
C         -4.79853       -10.03678        -0.69572
C         -3.53169        -9.29760        -0.33943
C         -2.33080       -10.17416        -0.07003
C         -1.19599        -9.56076         0.30284
C          0.16792       -10.18616         0.47671
C          1.09703        -9.42114        -0.50951
C          2.47447       -10.01230        -0.69441
C          3.63503        -9.39498        -0.34939
C          4.94224        -9.95160        -0.69878
C          6.10218        -9.24699        -0.81224
O          0.86487         4.59202        -0.05918
O          5.41496        -1.24015         2.03591
O         -2.70599         2.78253        -0.66624
O         -7.69483        -1.02534        -1.29936
O          8.10090        -0.29568        -2.82113
O          6.72370         3.74968         1.29071
O          2.27772        -3.53190         2.42491
O         -1.10127        -4.19908        -0.08248
O          5.52382        -5.77408         1.16763
O         -1.61714        -8.11862         2.13388
O          7.31663        -0.58191         0.60205
O         -5.99844        -0.87189         2.09461
O          4.69182         5.10061         2.20588
O         -7.47127        -3.35475         1.66470
O         -5.27126         7.48575        -2.15555
O          1.82267         2.15533        -0.59197
O          4.74927         0.98177        -1.80881
O         -3.43863        -0.16123        -0.27263
O         -1.89019         4.53469         2.34269
O          1.90890        -7.29515        -1.29521
O          7.16140         4.15289        -2.02639
O          0.77319        -7.01588         2.39983
O          7.43316        -3.43068        -1.87517
O          0.11768         2.93758         3.10670
O         -0.40924         6.78068         2.68364
O         -3.48443        -5.62139         2.51186
O         -1.57143         6.24749        -0.98814
O          4.09287         7.41884        -0.26168
O          0.79035         9.15886         2.83249
O          4.17615        -8.00408         1.52126
O         -6.04946        -5.89006         1.77245
O          3.20795        -0.43556        -0.77319
O          6.66560         1.79447        -2.98795
H          6.54656         0.92315        -3.42688
O        -10.42681        -1.62568         1.07823
H        -10.31993        -0.75106         1.51851
O         -2.87309        10.73947         0.72954
H         -2.11388        11.14425         1.19746
O          0.64472       -10.05087         1.80771
H          0.26155        -9.24470         2.22193
O          4.34117        -7.18994        -1.96807
H          4.60769        -8.02682        -2.40370
O         -4.34505        -8.93799         1.92740
H         -4.47411        -8.27208         2.63535
O         -3.17000        -8.47944        -1.49532
H         -2.95793        -9.08162        -2.23838
O         -1.04519        -5.22302         3.14965
H          0.59941        -6.57076         3.26164
O         -0.21131        -3.01276         3.07704
H          0.66210        -2.90818         3.51614
O         -5.01635        -3.22164         2.73345
H         -5.91060        -3.01170         3.08387
O          2.40933         7.37943         3.01561
H          2.69148         8.30351         3.24510
O         -8.44889        -6.22788         0.69185
H         -7.97738        -6.38114         1.54335
O          1.80285         0.99740         2.85229
H          1.23607         1.71579         3.27447
O          8.51236         5.72654         1.00248
H          8.45871         4.86095         1.47114
O          3.64796         9.74267         2.56712
H          3.37358        10.68204         2.62223
O         -8.20872        -7.84650        -1.31314
H         -8.77539        -7.71000        -0.51692
O         -9.20190         0.92825         1.41819
H         -9.03206         1.86950         1.67986
O          0.44094        -9.54161        -1.79622
H          0.81772        -8.84966        -2.38212
O         -1.15842        -0.72729         3.22593
H         -1.83394        -0.09955         3.56429
O          3.19700        -4.70744        -1.52172
H          2.68750        -5.48730        -1.84013
O         -0.70113        -6.52449        -0.92456
H         -0.00139        -5.97876        -1.34249
O         -3.40656         9.41880        -2.50281
H         -4.08985         8.84916        -2.92474
O         -2.87249         1.76110         2.84271
H         -2.11903         2.28015         3.22224
O         -3.81516        -3.61497        -0.65604
H         -2.91179        -3.82025        -0.99580
O         -7.15635        -4.49387        -2.23213
H         -7.50278        -3.76229        -2.78407
O         -0.22384        -1.54573        -0.24026
H         -0.10199        -0.65125        -0.62546
O         -6.71880         5.55190        -3.03532
H         -5.97983         6.19034        -3.16634
O          9.64114         1.92944        -3.37350
H          8.71031         2.17258        -3.58872
O         -5.20111         3.35228         2.00081
H         -4.50690         2.90329         2.54939
O          7.11053         7.84048         1.83006
H          7.78007         7.10847         1.82390
O          6.82430        -3.36995         1.71929
H          6.43673        -2.52124         2.11187
O         -7.87603         3.35188         1.31603
H         -7.07006         3.35901         1.89421
H         11.89432        -1.18997        -1.46592
H         11.84984         1.19364        -1.95107
H         10.64390         3.37463        -1.38049
H          8.92743         5.40802        -1.84517
H          6.74661         7.15015        -1.50931
H          7.01254         9.89590        -0.18716
H          5.00371        11.06332         0.36879
H          2.79687        10.54394        -0.46946
H          0.21066        10.87985        -0.77131
H         -2.09608        10.88283        -1.21062
H         -4.89224        10.81720        -0.20231
H         -7.00725         9.75397        -0.34911
H         -8.11553         7.11428        -0.39717
H         -9.10468         5.07673        -2.27362
H        -10.41554         3.15988        -1.91624
H        -11.69629         1.12810        -1.83947
H        -11.88846        -1.26398        -1.40895
H        -10.45310        -3.33311        -1.49366
H         -9.02229        -5.32545        -1.71430
H         -6.68107        -6.69807        -2.10651
H         -6.87424        -9.75861        -1.15224
H         -4.76542       -11.10824        -0.94435
H         -2.35619       -11.24929        -0.30674
H          0.15478       -11.27063         0.20340
H          2.51350       -10.95958        -1.25776
H          4.97518       -11.03450        -0.89739
H          7.03513        -9.80031        -0.99851
H          8.34567        -7.77492        -0.24248
H          9.58245        -5.57694        -0.71581
H         10.75103        -3.30636        -1.03443
