         261
 CSIRO Nanostructure Databank - Neutral Graphene Oxide Data Set
C        -11.16916         0.67868         0.70495
C        -10.08725         1.42126         0.01561
C         -8.91176         0.63429        -0.49092
C         -7.64336         1.33482        -0.95327
C         -6.33590         0.59052        -0.87248
C         -5.03699         1.34724        -1.11217
C         -3.71238         0.57897        -1.05805
C         -2.52897         1.45573        -0.60800
C         -1.26406         0.76426        -0.18228
C          0.04262         1.52849        -0.11161
C          1.31205         0.70017         0.09795
C          2.63134         1.50350        -0.15421
C          3.91365         0.76772        -0.42435
C          5.23235         1.51336        -0.41787
C          6.51850         0.78685        -0.56957
C          7.82215         1.54060        -0.52442
C          8.81979         0.72448         0.24909
C          9.81608         1.41889         1.12108
C         10.92320         0.58524         1.66615
C         -9.91035         2.88507         0.18005
C         -8.81946         3.54229        -0.27654
C         -7.65143         2.85506        -0.91415
C         -6.33548         3.59795        -0.82793
C         -5.04553         2.85129        -1.10002
C         -3.75889         3.64826        -1.05766
C         -2.45373         2.87705        -1.09832
C         -1.16436         3.62661        -0.96765
C          0.06736         3.00119        -0.38035
C          1.37659         3.81403        -0.40602
C          2.62212         2.94794        -0.66283
C          3.93482         3.65608        -0.88565
C          5.20757         3.01681        -0.40209
C          6.49804         3.76362        -0.28653
C          7.80411         3.01211        -0.28867
C          8.92913         3.66171         0.45350
C          9.88369         2.91036         1.05460
C         -8.81889         5.06425        -0.34259
C         -7.48748         5.69785         0.05171
C         -6.30197         4.74792         0.20995
C         -4.95332         5.52340         0.27046
C         -3.75957         5.05113        -0.52025
C         -2.42165         5.70400        -0.22566
C         -1.24038         5.13381        -0.95650
C         -0.01113         5.97125        -1.12437
C          1.31502         5.19018        -1.13438
C          2.62502         5.88986        -0.95836
C          3.97960         5.16104        -0.95666
C          5.24171         5.94093        -0.69689
C          6.65014         5.25367        -0.64679
C          7.64003         5.88601         0.33373
C          8.99990         5.18768         0.40294
C         -7.41747         6.98880         0.43007
C         -6.23852         7.60195         1.18182
C         -4.91330         6.93155         0.79482
C         -3.71288         7.75644         0.37576
C         -2.35908         7.08756         0.35947
C         -1.07026         7.94922         0.22791
C         -0.21482         7.55044        -0.99960
C          1.05157         8.44172        -0.97264
C          2.63577         7.07364        -0.06936
C          3.74717         8.00431         0.04579
C          5.12248         7.34568        -0.15524
C          6.08780         7.76977         0.95055
C          7.44985         7.11387         0.86214
C         -6.20415         9.10929         1.07933
C         -5.12077         9.85042         0.80238
C         -3.82073         9.26553         0.39213
C         -2.57692        10.02759         0.49707
C         -1.34004         9.46355         0.21393
C         -0.13102        10.18110         0.29943
C          1.13406         9.50566         0.11775
C          2.29810         9.98756         0.68945
C          3.55572         9.17909         0.99595
C          4.86673         9.93765         1.08965
C          6.04154         9.28249         1.07820
C        -11.24282        -0.67137         0.70453
C        -10.11602        -1.53132         0.28649
C         -8.85768        -0.85100        -0.18597
C         -7.56398        -1.34807         0.40211
C         -6.30760        -0.62293         0.03444
C         -4.98783        -1.26475         0.35290
C         -3.74182        -0.61453        -0.12052
C         -2.49451        -1.45132        -0.16536
C         -1.19164        -0.74619        -0.17330
C          0.03794        -1.47641        -0.64589
C          1.33779        -0.72035        -0.58285
C          2.53620        -1.23777        -1.35653
C          3.88275        -0.57271        -1.12033
C          5.20444        -1.32759        -1.29296
C          6.53628        -0.64157        -1.02341
C          7.78472        -1.43838        -0.72697
C          8.96745        -0.73629        -0.08708
C          9.95988        -1.51465         0.71353
C         10.90160        -0.76166         1.59222
C        -10.01563        -2.94544         0.70645
C         -8.78911        -3.59946         0.80214
C         -7.59695        -2.72023         1.18990
C         -6.17863        -3.46611         1.05666
C         -4.93308        -2.74168         0.65135
C         -3.85562        -3.54600        -0.06861
C         -2.64511        -2.86109        -0.62492
C         -1.41635        -3.57812        -1.14463
C         -0.13956        -2.80172        -1.36304
C          1.15387        -3.55602        -1.57442
C          2.48350        -2.73993        -1.59716
C          3.76408        -3.47869        -1.29707
C          5.16241        -2.84062        -1.27716
C          6.41290        -3.65584        -0.89661
C          7.72389        -2.94907        -0.61408
C          8.70068        -3.63604         0.29078
C          9.69976        -2.96400         0.91154
C         -8.72256        -5.00907         0.90041
C         -7.49796        -5.73182         0.87202
C         -6.23407        -4.95753         0.52864
C         -4.88872        -5.67370         0.89601
C         -3.68620        -4.98240         0.33848
C         -2.54635        -5.75965        -0.27523
C         -1.43692        -5.09654        -1.06149
C         -0.13777        -5.87626        -1.26655
C          1.14798        -5.06756        -1.42782
C          2.37221        -5.64781        -0.74998
C          3.54813        -4.74107        -0.54225
C          4.77813        -5.36366        -0.00104
C          6.18914        -5.00069        -0.24761
C          7.25024        -5.75820         0.50578
C          8.64450        -5.16578         0.32920
C         -7.47124        -7.11088         0.76170
C         -6.21243        -7.88774         0.76832
C         -4.90776        -7.17302         0.96207
C         -3.59701        -7.88798         0.72032
C         -2.37229        -7.16919         0.23120
C         -1.33661        -8.06407        -0.45419
C         -0.08595        -7.36930        -0.97827
C          1.28869        -8.05261        -0.71517
C          2.53012        -7.16144        -0.65889
C          3.79434        -7.80447        -0.15340
C          4.61293        -7.40121         0.84724
C          5.90716        -7.90605         1.41951
C          7.12427        -7.02319         1.00797
C         -6.14627        -9.23028         0.14338
C         -4.98332        -9.87998        -0.02678
C         -3.65762        -9.41273         0.54387
C         -2.45907        -9.84532        -0.31685
C         -1.12522        -9.38887         0.22081
C          0.01791       -10.09092         0.24019
C          1.35950        -9.57379        -0.22742
C          2.44846        -9.99028         0.79221
C          3.75732        -9.89363         0.46343
C          5.02830       -10.27498         1.11588
C          6.04813        -9.41565         1.34036
O          4.72761         5.75122        -2.04425
O         -7.79015        -2.47773         2.50120
O          8.20089         2.42556        -1.58921
O         -9.61984        -1.61169        -1.13983
O         -4.58474         5.81853         1.65124
O         -6.51173         4.14150         1.45126
O          4.60298         8.29610        -1.08702
O         -2.55233        -7.41960         1.64332
O          2.11959        -7.82304        -1.88378
O         -0.11591         2.51024         0.96939
O         -2.17288         5.92350         1.19269
O          7.24984         5.35720        -1.88562
O          1.79795         8.51295        -1.93778
O         -0.84855         5.60680        -2.26809
O         -7.12781         0.57460        -2.09003
O          3.23069         3.01559        -1.98443
O         -4.20393        -0.39479         1.22789
O          5.48718        -6.01707        -1.08043
O         -0.23352        -6.87255        -2.32449
O          2.49881        -4.82455         0.47763
O          4.49630        -6.04492         1.21078
O         -1.07464        -2.95726        -2.44118
O          0.99858        -1.71149         0.43684
O          3.46932         1.04737         0.94903
O         -0.22627         7.87314         1.34767
O         -1.58795         3.06012        -2.25053
O          7.51836        -0.90536        -2.05426
O         -7.15071         3.67230        -2.02746
O         -2.23198        -8.85151        -1.40802
O          5.31094        -2.09130        -2.50689
O         -9.99116         0.97987        -1.39451
O         -2.21846         1.28821         0.78921
O         -2.57071        -5.70802        -1.73011
O          7.48152        -3.63696        -1.87499
O          8.53034         0.92299         1.67634
O         10.21535        -1.14056        -0.70887
O         -3.92520         8.47229        -0.86615
O         -3.90395         4.80609        -1.94000
O          5.93279         0.94402         0.75358
O          5.66177         3.56531         0.88540
O          3.11152        -0.40907        -2.37514
O         -3.90108        -5.10176         1.77811
O         -5.10361         2.09987        -2.35203
O         -5.21923        -3.15018         2.02141
O         -5.57705        -7.76068         2.11842
O         -3.80244        -3.15693        -1.46180
O          2.07314         5.65507        -2.28183
O          1.17311        -4.45006        -2.72409
O         -7.04029        -0.30692         1.26755
O          3.99937        -9.09114        -0.68824
O         -6.24559        -4.82442        -0.82948
O          3.26197        -3.33622        -2.64946
O         -1.70664        -1.34800         1.05557
O          5.82844        -7.66585         2.85943
H          5.45656        -6.76349         2.97451
O          9.52462        -5.69276         1.30806
H         10.43331        -5.70336         0.94833
O         -0.92549         8.00770        -2.14900
H         -0.48045         7.67618        -2.95838
O          5.47806         7.19325         2.14936
H          6.10782         7.29369         2.89375
O         -3.50603       -10.04146         1.83159
H         -4.10211        -9.57668         2.45917
O          1.88748         6.88762         0.97441
H          2.05859         7.54165         1.71587
O         -9.17136         5.46229        -1.67193
H         -8.55681         5.00017        -2.28901
O          1.58634         4.28605         0.95297
H          1.12628         3.65470         1.56460
O          9.77076         5.68861         1.49104
H          9.37938         5.36198         2.32678
O          3.26168         8.60613         2.31818
H          3.10389         9.34194         2.94754
O          1.22040         0.45126         1.50123
H          2.04625         0.02249         1.81294
O         -6.48654         7.31375         2.57622
H         -6.25672         6.36223         2.70781
O          1.60702       -10.33516        -1.42359
H          2.26739        -9.83015        -1.95344
O         -3.42970         0.07222        -2.36825
H         -3.83815         0.68291        -3.02552
H         11.68481        -1.34674         2.09853
H         11.70848         1.08968         2.24924
H         10.72661         3.40966         1.55837
H          9.54508         5.45947        -0.54093
H          8.25960         7.56545         1.46079
H          6.98659         9.84035         1.16239
H          4.83732        11.03293         1.19126
H          2.17506        10.85415         1.36489
H         -0.14143        11.27278         0.46219
H         -2.62516        11.05680         0.88774
H         -5.18774        10.94906         0.83033
H         -7.13895         9.61955         1.35771
H         -8.33091         7.60408         0.37787
H         -9.61823         5.45701         0.33676
H        -10.74376         3.45563         0.61913
H        -11.98480         1.26551         1.15346
H        -12.09021        -1.16863         1.20028
H        -10.94704        -3.53926         0.70110
H         -9.66688        -5.57829         0.95161
H         -8.41807        -7.67549         0.74301
H         -7.08297        -9.65786        -0.24483
H         -4.98725       -10.86832        -0.51186
H         -2.53565       -10.88945        -0.69646
H         -0.02856       -11.17875         0.40567
H          2.13093       -10.55418         1.68093
H          5.19322       -11.34818         1.31041
H          6.98238        -9.82202         1.76037
H          8.06847        -7.43407         1.41093
H          8.99599        -5.49463        -0.69546
H         10.38326        -3.52305         1.57065
