         232
 CSIRO Nanostructure Databank - Neutral Graphene Oxide Data Set
C        -10.96757         0.82960        -0.10550
C         -9.76675         1.60044         0.17618
C         -8.51181         0.86962         0.34940
C         -7.32940         1.56822         0.53974
C         -6.04936         0.82308         0.55253
C         -4.79311         1.58727         0.79719
C         -3.51849         0.87670         1.21520
C         -2.39626         1.45094         0.33398
C         -1.10038         0.80222         0.51555
C          0.12235         1.56970         0.32452
C          1.41199         0.82102        -0.08795
C          2.62861         1.55072        -0.51669
C          3.84215         0.82450        -1.00552
C          5.17473         1.49590        -0.96197
C          6.31903         0.76850        -0.57398
C          7.51957         1.48377        -0.35624
C          8.81237         0.71610        -0.24003
C          9.92962         1.47478         0.43352
C         11.08060         0.69233         0.85673
C         -9.80186         2.96325         0.27235
C         -8.62409         3.75284         0.77190
C         -7.30489         3.01685         0.61550
C         -6.14173         3.73109         0.73855
C         -4.78912         3.09975         0.99537
C         -3.76159         3.70290        -0.02689
C         -2.45098         2.89573        -0.10629
C         -1.15760         3.63167        -0.23878
C          0.03445         3.00159        -0.06173
C          1.31643         3.61556        -0.61212
C          2.59737         2.89888        -0.22277
C          3.73377         3.63873         0.36068
C          5.31715         2.86801        -1.29323
C          6.39229         3.62257        -0.77385
C          7.52566         2.89798        -0.33551
C          8.74251         3.61125         0.05614
C          9.89839         2.84213         0.47551
C         -8.56659         5.18270         0.29344
C         -7.40070         5.92166         0.38917
C         -6.14454         5.21364         0.74765
C         -4.82434         5.95328         0.50014
C         -3.57609         5.18399         0.21881
C         -2.42346         5.81175        -0.11587
C         -1.23707         5.07696        -0.71613
C          0.07395         5.87533        -0.50517
C          1.38055         5.13263        -0.43848
C          2.61092         5.81564         0.03593
C          3.84681         5.09497         0.07624
C          5.07892         5.73773         0.00810
C          6.31640         5.14236        -0.70697
C          7.60054         5.79532        -0.22790
C          8.76590         4.98966         0.04358
C         -7.34794         7.33400         0.18009
C         -6.12686         8.03793         0.05935
C         -4.90593         7.33941         0.03356
C         -3.67165         8.04554        -0.33036
C         -2.38452         7.28758        -0.31659
C         -1.12613         8.01221        -0.05120
C          0.04197         7.27867        -0.00640
C          1.31556         7.93161         0.28649
C          2.59897         7.22887         0.10274
C          3.80653         7.94855         0.11806
C          5.07965         7.20458         0.18788
C          6.38565         7.95625         0.05042
C          7.63259         7.15541        -0.09036
C         -6.08519         9.48627        -0.10169
C         -4.91330        10.18348        -0.15521
C         -3.62737         9.51671        -0.18351
C         -2.41448        10.16197        -0.13878
C         -1.13789         9.46683        -0.05432
C          0.06122        10.16362        -0.08232
C          1.33717         9.51437         0.21414
C          2.63307        10.10325        -0.12038
C          3.81946         9.37668        -0.05463
C          5.09185        10.01886        -0.37029
C          6.28012         9.36564        -0.37060
C        -10.96187        -0.52577        -0.15550
C         -9.74166        -1.30483        -0.01148
C         -8.49657        -0.57901         0.26371
C         -7.32965        -1.29432         0.49495
C         -6.06057        -0.65460         0.73373
C         -4.89940        -1.35753         0.98573
C         -3.61333        -0.65748         1.20061
C         -2.32555        -1.43471         0.97280
C         -1.05507        -0.63291         0.80195
C          0.19099        -1.37323         0.38370
C          1.28399        -0.63833        -0.33007
C          2.51500        -1.38805        -0.76800
C          3.81092        -0.67888        -1.06238
C          5.06996        -1.44234        -0.83227
C          6.29001        -0.70831        -0.52718
C          7.41447        -1.40597        -0.14739
C          8.58227        -0.65160         0.36739
C          9.75117        -1.39357         0.93030
C         11.02994        -0.65431         1.02272
C         -9.75477        -2.66542        -0.17360
C         -8.46845        -3.45055        -0.24562
C         -7.39330        -2.77151         0.57736
C         -6.18116        -3.54188         0.95764
C         -4.84390        -2.86866         1.29001
C         -3.63683        -3.53683         0.59614
C         -2.43207        -2.82265         0.46344
C         -1.26934        -3.37416        -0.34809
C          0.07666        -2.84686         0.12508
C          1.30179        -3.56125        -0.30430
C          2.56527        -2.83828        -0.54027
C          3.73468        -3.52132        -0.71734
C          5.02156        -2.83246        -0.71277
C          6.19848        -3.60763        -0.34912
C          7.53528        -2.89748        -0.34301
C          8.58405        -3.57417         0.52266
C          9.68262        -2.86234         0.98770
C         -8.57021        -4.93521         0.02199
C         -7.47152        -5.67846         0.34994
C         -6.19587        -5.02348         0.73544
C         -4.90319        -5.71479         0.39115
C         -3.71766        -4.87465         0.14108
C         -2.58580        -5.51494        -0.55952
C         -1.25293        -4.88001        -0.50577
C         -0.09664        -5.58759        -0.77473
C          1.20855        -4.96572        -0.73539
C          2.38203        -5.69179        -0.78125
C          3.68379        -4.99089        -0.83111
C          4.93825        -5.74872        -0.46839
C          6.14044        -4.96431        -0.10585
C          7.29049        -5.70418         0.41603
C          8.48021        -4.97043         0.71918
C         -7.43954        -7.12954         0.26842
C         -6.26683        -7.81156         0.04400
C         -4.99379        -7.11073        -0.10921
C         -3.89020        -7.75692        -0.58054
C         -2.66211        -6.98777        -0.88085
C         -1.39596        -7.78116        -1.00040
C         -0.08548        -7.05570        -1.00119
C          1.15447        -7.80478        -0.69002
C          2.36968        -7.13541        -0.67530
C          3.59294        -7.82391        -0.28705
C          4.77404        -7.14619        -0.04890
C          5.87091        -7.79103         0.75874
C          7.18766        -7.06236         0.68222
C         -6.24043        -9.25827        -0.14609
C         -5.16464        -9.90435        -0.63918
C         -3.93011        -9.17503        -1.11628
C         -2.63476        -9.92521        -0.88313
C         -1.45928        -9.16752        -0.34862
C         -0.13483        -9.89043        -0.39152
C          1.07874        -9.23592        -0.45496
C          2.33273        -9.93514        -0.22968
C          3.52628        -9.26662        -0.09307
C          4.79089        -9.95284         0.16943
C          5.91498        -9.27870         0.49614
O         -7.22492        -3.22643         1.96175
O         -4.65682        -3.02149         2.70873
H         -5.54972        -3.05677         3.11796
O          8.05702        -3.04972        -1.71253
H          7.37962        -2.70289        -2.33170
O          6.11745         5.64828        -2.06252
H          5.38220         5.13091        -2.46504
O         -4.37986         3.67305        -1.32783
H         -4.24641         2.76502        -1.69180
O         -5.15237         1.22806        -0.57005
O         -3.15412         1.23448         2.56547
H         -2.78288         0.41299         2.98568
O         -2.89537        -6.00688        -1.94781
O          1.43431        -1.03558        -1.71491
O         -1.41151        -2.80864        -1.69381
H         -2.07216        -3.34404        -2.18402
O         -2.64591         1.79685        -1.07620
O         -4.42726         3.48500         2.32588
H         -3.87406         2.78544         2.74715
O          0.93608         5.80367        -1.68996
O         -3.02232         7.60841        -1.61861
O         -1.72617        -8.83659         1.06411
H         -1.93721        -9.67176         1.53232
O         -1.48038         5.01141        -2.14106
H         -1.94485         5.83534        -2.41012
O         -7.99060        -3.33291        -1.63356
H         -8.69912        -3.66255        -2.22556
O          0.00063        -1.02991         1.77118
O          5.84552         7.68046         1.39710
O         -8.83022         3.85996         2.23442
H         -8.04175         4.31164         2.60776
O          4.38919         3.49472        -2.08542
H          3.70514         2.86118        -2.39436
O          1.23204         3.33998        -2.04145
H          0.64772         4.03669        -2.43314
O         -2.87237        -1.23662         2.32457
O          1.31241         8.76394         1.47178
O          4.55947        -5.51793        -1.87970
O          3.67412         0.11429        -2.29340
O          9.26436         0.44959        -1.60887
H          9.41239         1.31303        -2.04890
O          5.46329        -7.65336         2.17724
H          4.64628        -8.18343         2.29804
O         -4.05210        -9.06427        -2.57311
H         -3.33742        -8.46723        -2.88613
O         -5.40306         5.81142         1.85205
O          1.16309         1.21988         1.30333
O         -5.43029        -5.68121         1.78409
O          0.81078        -3.57432         1.13911
O          8.70190        -0.74006         1.81409
O          4.43848         3.11259         1.22261
O         -0.71866        -7.59366        -2.25060
H         11.93475        -1.21192         1.30744
H         12.02542         1.22766         1.03929
H         10.76067         3.39489         0.88097
H          9.68780         5.51368         0.34107
H          8.57653         7.64913         0.19413
H          7.19347         9.88415        -0.69840
H          5.05776        11.07933        -0.66299
H          2.65977        11.14970        -0.46075
H          0.05976        11.23827        -0.31996
H         -2.39332        11.26193        -0.09648
H         -4.93079        11.28319        -0.18615
H         -7.04152        10.02990        -0.10023
H         -8.29339         7.88424         0.06188
H         -9.51295         5.69187         0.05271
H        -10.75418         3.49589         0.12492
H        -11.90940         1.38111        -0.24451
H        -11.89712        -1.07298        -0.34679
H        -10.70254        -3.17707        -0.40546
H         -9.49549        -5.44906        -0.28506
H         -8.39434        -7.67707         0.26935
H         -7.14470        -9.82383         0.12776
H         -5.19291       -10.99573        -0.77524
H         -2.43579       -10.74939        -1.58876
H         -0.14185       -10.96989        -0.17186
H          2.30343       -11.02871        -0.10656
H          4.80867       -11.04974         0.07655
H          6.85070        -9.82223         0.69633
H          8.06927        -7.58664         1.08375
H          9.29885        -5.49359         1.23759
H         10.49882        -3.40426         1.49206
