         294
 CSIRO Nanostructure Databank - Neutral Graphene Oxide Data Set
C          1.13652         2.21755         0.59195
C          1.16288         3.58384         0.83669
C          2.27156         1.49268         0.23526
C          2.29490         4.43197         0.34476
C          1.69752         6.43262         1.83766
C          1.61219         7.75083         1.61336
C          2.80029         5.54670         1.30223
C          2.50164         8.43466         0.59889
C          1.19679        10.63571         0.61503
C          1.05480        11.94200         0.35558
C          2.55368         9.97587         0.73385
C          2.18507        12.76787        -0.16265
C          1.01108        15.05917        -0.06994
C          1.00859        16.40247        -0.09298
C          2.25991        14.24715         0.21580
C          2.27184        17.18516        -0.13927
C          2.35512        18.59591         0.32998
C          3.61442         2.10061         0.46408
C          3.52266         3.58231        -0.12621
C          4.79484         1.44679        -0.14887
C          4.83560         4.25078        -0.42141
C          3.87307         6.33103         0.55044
C          3.93948         7.83400         0.69857
C          4.89398         5.69621        -0.08448
C          4.85892         8.45689        -0.38332
C          3.61356        10.61091        -0.16492
C          3.46403        12.04508        -0.46325
C          4.85948         9.96771        -0.35481
C          4.71434        12.82394        -0.75458
C          3.54933        14.93568        -0.21303
C          3.55530        16.42651        -0.20234
C          4.71318        14.27577        -0.45469
C          4.81633        17.15225         0.27977
C          3.52089        19.26985         0.35375
C          4.80273        18.64094        -0.15750
C          6.13369         2.06597         0.08257
C          6.12426         3.45935        -0.70995
C          7.32997         1.26214        -0.46360
C          7.42974         4.17380        -0.45107
C          6.20093         6.40202        -0.12135
C          6.23003         7.84996        -0.30676
C          7.47413         5.63554        -0.24397
C          7.41246         8.51451        -0.47262
C          6.05401        10.63655        -0.67731
C          6.00944        12.08297        -0.93902
C          7.43012        10.02548        -0.43978
C          7.30194        12.84674        -0.99972
C          6.02602        14.94672        -0.05044
C          6.02949        16.43546        -0.23885
C          7.33513        14.24574        -0.45568
C          7.17419        17.22492        -0.62804
C          6.10296        19.27140         0.27147
C          7.27118        18.62549        -0.10472
C          8.62334         2.02235        -0.21062
C          8.60908         3.48300        -0.36502
C          9.73096         1.40996         0.26564
C          9.87112         4.21459        -0.28818
C          8.67669         6.39807        -0.60233
C          8.65071         7.76806        -0.64681
C          9.95666         5.62457        -0.86210
C          9.93955         8.46726        -1.06886
C          8.56671        10.60114        -1.35107
C          8.59215        12.13041        -1.27312
C          9.89291         9.97045        -0.94265
C          9.87406        12.84105        -1.03064
C          8.59056        15.00476        -0.72443
C          8.53794        16.48838        -0.89095
C          9.85767        14.30705        -1.08465
C          9.77570        17.18580        -0.66040
C          8.55354        19.20913         0.06802
C          9.78044        18.53533        -0.21585
C         10.94626         2.17407         0.71950
C         10.98583         3.58620         0.18381
C         12.24069         1.44804         0.46350
C         12.24776         4.30281         0.29158
C         11.12559         6.42919        -0.29450
C         11.10749         7.80921        -0.37004
C         12.24136         5.72849         0.23479
C         12.06262         8.68208         0.41722
C         11.03432        10.69577        -0.69997
C         11.03267        12.15400        -0.79765
C         12.27877        10.03311        -0.26167
C         12.32079        12.94229        -0.59051
C         11.02013        15.01270        -1.13565
C         11.04181        16.52590        -1.15604
C         12.27319        14.21931        -1.47283
C         12.27905        17.10618        -0.55715
C         11.02747        19.13668         0.08615
C         12.25825        18.42036        -0.03869
C         13.44893         2.13474         0.40311
C         13.44047         3.58418         0.42505
C         14.69696         1.44607         0.27974
C         14.71848         4.33748         0.22664
C         13.38665         6.45781         0.81850
C         13.36503         7.97418         0.84403
C         14.68900         5.70020         0.90377
C         14.67126         8.73668         0.89195
C         13.47783        10.68907        -0.27855
C         13.55746        12.07553        -0.84762
C         14.69739        10.16727         0.40767
C         14.88267        12.75080        -1.07924
C         13.59169        15.02994        -1.38486
C         13.60043        16.54891        -1.03027
C         14.88898        14.26878        -1.27050
C         14.69341        16.86192         0.02933
C         13.47114        19.03552         0.39766
C         14.68327        18.31264         0.48930
C         15.92847         2.13901         0.31593
C         15.94911         3.53184         0.51049
C         17.17694         1.44468         0.01675
C         17.25684         4.26282         0.34891
C         15.98712         6.45560         1.06960
C         15.98609         7.96087         1.03089
C         17.30426         5.64464         1.07445
C         17.30271         8.71501         1.00371
C         16.00702        10.90266         0.31834
C         16.20847        12.02628        -0.71254
C         17.28128        10.20806         0.80375
C         17.31213        12.99315        -0.15186
C         16.16735        15.04932        -1.00485
C         16.07351        16.43448        -0.46340
C         17.46840        14.27354        -1.00633
C         17.29907        17.15154         0.07752
C         15.80111        18.84064         1.10722
C         17.02638        18.00176         1.34096
C         18.38931         2.07685         0.04651
C         18.48893         3.40949         0.76474
C         19.59381         1.48051        -0.47598
C         19.75269         4.20613         0.47463
C         18.56775         6.44653         0.59129
C         18.60180         7.95455         0.91433
C         19.84366         5.62871         1.03876
C         19.75881         8.60843         0.59051
C         18.64205        10.95421         0.73105
C         18.61174        12.23779        -0.05790
C         19.71694        10.03923         0.13456
C         19.95047        12.90861        -0.14125
C         18.62161        15.05938        -0.39054
C         18.46906        16.21180         0.30128
C         19.92126        14.36059        -0.59201
C         19.45370        16.69875         1.31992
C         18.29059        18.79933         1.60367
C         19.50205        18.18822         1.49359
C         20.73982         2.20666        -0.57026
C         20.81753         3.59208        -0.12905
C         22.07609         4.30261        -0.32507
C         21.12164         6.37678         0.62614
C         21.05750         7.87606         0.42724
C         22.22785         5.59347         0.02714
C         22.15131         8.52850        -0.33186
C         20.86725        10.61052        -0.64798
C         20.98896        12.10820        -0.98819
C         22.08003         9.77642        -0.81351
C         22.33175        12.75916        -0.70719
C         21.27887        15.01005        -0.70160
C         21.38382        16.46914        -0.39715
C         22.44551        14.09077        -0.55666
C         22.11490        16.97555         0.63659
C         20.78506        18.87532         1.56928
C         21.96599        18.32425         1.18370
O          7.85397        12.76726        -2.36548
O          2.96199        16.94954        -1.44058
O          3.83004         3.88322        -1.48484
O         14.38302        14.71260        -2.57183
O         21.56718         7.28728         1.69000
O          2.45808        12.40827        -1.53774
O         20.47870        14.71666        -1.90245
O         19.68853        10.04873        -1.34198
O          7.69555        16.98183        -1.97415
O         15.11362        11.18193         1.42087
O         17.17099         9.65041         2.14315
O         19.95252        15.90186         2.11040
O          5.18751        12.48824        -2.10342
O          6.95445         5.99513         1.10345
O         14.15712        12.11323        -2.17853
O         16.23464        16.21553        -1.90452
O         15.94514         7.23715         2.29809
O          8.28158        14.49295         0.64762
O         13.84468         8.55883         2.08465
O         13.83409         5.79820         2.06223
O          5.94003        14.72851         1.42401
H          6.87262        14.74343         1.75602
O         19.00607        11.26670         2.10124
H         18.57730        10.58103         2.67246
O         11.34330         8.99349         1.64577
H         12.02350         9.09585         2.35307
O         14.39996        16.03065         1.17415
H         15.03737        16.27338         1.89096
O         18.61418         6.55085        -0.84744
H         18.47037         5.65602        -1.25073
O         17.72931        18.09152        -0.93021
H         17.54494        17.68437        -1.80660
O         20.61773        17.25430        -1.19913
H         20.24258        16.66946        -1.89916
O          8.28124        10.21627        -2.71248
H          7.87886        11.00630        -3.15191
O          4.83064        18.74742        -1.59868
H          4.08560        18.20386        -1.95693
O          2.98399        10.30105         2.08624
H          3.71760         9.67943         2.32728
O         12.08160        13.80204        -2.83125
H         12.96240        13.52295        -3.17991
O          3.43819         4.97142         2.45680
H          3.48933         3.98033         2.36204
O         12.39373        13.37797         0.78309
H         12.38249        12.59120         1.36789
O         14.75767         4.69317        -1.24649
H         14.41761         3.91321        -1.73796
O          6.15085         3.12323        -2.10637
H          5.22724         3.18671        -2.44750
O         16.72559        11.37740        -1.87772
H         17.04363        12.07699        -2.49647
O          7.81069        10.43980         0.90650
H          7.33340         9.87676         1.55259
O         13.86352        17.27221        -2.25662
H         14.53557        16.74279        -2.75449
O         17.38310         4.37221        -1.10302
H         16.48924         4.62464        -1.45976
O          2.36236        14.21639         1.67555
H          2.46377        15.13651         1.99940
O         19.89607         5.50727         2.47285
H         20.48411         6.22951         2.79898
O         17.75707        13.86748        -2.35324
H         17.68111        14.65687        -2.93098
O          3.78558         2.33755         1.88020
H          4.76513         2.31440         2.05670
O         16.73435        17.09211         2.44497
H         17.57460        16.67233         2.73331
O         17.45741         5.30920         2.46053
H         17.16394         6.08589         2.99227
O         10.10428         8.20636        -2.50824
H          9.44361         8.78287        -2.97051
O         10.13793         5.47450        -2.29230
H         10.17355         6.39341        -2.66727
O          4.77076        17.12387         1.73300
H          5.10679        16.22948         2.00168
O         20.72026        12.21590        -2.38485
H         19.97400        11.60659        -2.58407
O          7.33346         0.00036         0.20259
H          7.91999        -0.61371        -0.28252
O          4.37492         8.07401        -1.69330
H          3.41952         8.33138        -1.74571
O          6.38570         2.35745         1.46816
H          6.92112         1.61729         1.82760
O         11.08967        16.91710        -2.58468
H         12.02912        17.14232        -2.80261
O         18.49558         3.04363         2.15436
H         18.74230         3.84313         2.67727
O         16.89697        13.46044         1.15595
H         16.96751        12.71837         1.79655
O         20.56097        12.94090         1.17931
H         19.90485        13.28210         1.82513
O          1.78946         5.19857        -0.78137
H          1.60701         4.57831        -1.51897
O          4.51966         8.13829         1.99413
H          4.35597         7.37589         2.59120
O         10.83970         2.25698         2.18799
H         11.57930         2.82094         2.50210
O          1.94817         8.13764        -0.70645
H          1.80928         7.15888        -0.76719
H          0.16832         1.69453         0.64154
H          0.22129         4.10660         1.05792
H          2.18021         0.53645        -0.29831
H          1.01205         5.95702         2.55626
H          0.82558         8.33901         2.11086
H          0.31777        10.04376         0.91202
H          0.05550        12.40422         0.38611
H          0.05286        14.51838        -0.09833
H          0.05927        16.95245        -0.19002
H          1.42513        19.07580         0.67207
H          4.63886         1.08238        -1.17924
H          3.53909        20.31596         0.69713
H          7.18727         1.10833        -1.56967
H          6.13595        20.27220         0.72876
H          9.71758         0.32680         0.46587
H          8.60518        20.24179         0.44553
H         12.24330         0.34708         0.48287
H         11.05080        20.16481         0.47583
H         14.69137         0.35238         0.16875
H         13.43785        20.07012         0.77061
H         17.10139         0.42009        -0.38101
H         15.77983        19.87723         1.47717
H         19.55504         0.44721        -0.85280
H         18.21881        19.88512         1.77361
H         21.64597         1.75883        -1.00425
H         22.92057         3.74564        -0.75674
H         23.20654         6.07777        -0.09042
H         23.08328         7.96245        -0.46187
H         22.93299        10.19930        -1.36349
H         23.22920        12.12914        -0.61154
H         23.42635        14.54242        -0.34344
H         22.79750        16.29441         1.16751
H         20.77247        19.90916         1.94884
H         22.89158        18.89619         1.37378
