         234
 CSIRO Nanostructure Databank - Neutral Graphene Oxide Data Set
C          1.20396         1.93063        -0.24623
C          1.15182         3.35252        -0.32746
C          2.35897         1.24044        -0.47237
C          2.31801         4.11681        -0.50053
C          1.13292         6.32099        -0.21218
C          1.18030         7.69932         0.00849
C          2.31186         5.57630        -0.39367
C          2.39366         8.39877         0.01207
C          1.55404        10.81442        -0.21835
C          1.62636        12.12211         0.06943
C          2.41240         9.81510         0.55209
C          2.60359        12.63125         1.11928
C          1.60023        14.94267         1.37686
C          1.64857        16.29579         1.48540
C          2.77654        14.13682         1.12702
C          2.95193        17.01088         1.23060
C          3.05730        18.40664         1.79420
C          3.58061         1.95418        -0.97590
C          3.55891         3.43095        -0.66749
C          4.87273         1.28326        -0.60305
C          4.77748         4.13542        -0.63819
C          3.54978         6.28487        -0.44502
C          3.59047         7.70208        -0.26042
C          4.77436         5.56271        -0.57194
C          4.84817         8.40614        -0.39572
C          3.83232        10.40854         0.65461
C          3.92679        11.87047         0.96081
C          4.96198         9.80021        -0.08483
C          5.18425        12.58968         0.64666
C          4.04238        14.70772         1.18559
C          4.11340        16.12960         1.63386
C          5.23990        13.94742         0.99831
C          5.42107        16.74735         1.99728
C          4.21492        18.96929         2.16719
C          5.52782        18.23418         2.36909
C          6.04598         1.98308        -0.45042
C          6.03148         3.44334        -0.53318
C          7.31333         1.31478        -0.28742
C          7.22204         4.16277        -0.44377
C          6.00208         6.26390        -0.67409
C          6.00755         7.67857        -0.70674
C          7.24722         5.56791        -0.65590
C          7.20137         8.37071        -1.20422
C          6.14503        10.53074        -0.31704
C          6.30381        11.89109         0.10860
C          7.22154         9.90713        -1.11589
C          7.55463        12.60115        -0.13158
C          6.56310        14.58698         1.07769
C          6.66224        16.00707         1.56572
C          7.66953        13.94863         0.31826
C          7.72221        16.85379         0.92880
C          6.71723        18.95009         1.78507
C          7.81861        18.29862         1.27027
C          8.50873         2.00707        -0.13358
C          8.45988         3.50412         0.08091
C          9.75382         1.34482         0.00401
C          9.72142         4.23027        -0.29851
C          8.47952         6.28360        -0.81682
C          8.48127         7.63578        -1.23208
C          9.73183         5.57243        -0.64653
C          9.70253         8.32170        -1.49610
C          8.50566        10.64897        -1.44357
C          8.64798        12.02201        -0.86371
C          9.70858         9.74932        -1.93275
C          9.85781        12.74694        -0.93739
C          8.86858        14.67240         0.16640
C          8.88460        16.15234         0.30313
C          9.99282        14.04135        -0.38313
C         10.14911        16.89603         0.14199
C          9.01828        18.97537         0.92147
C         10.16131        18.30501         0.41304
C         10.97512         2.04239         0.12885
C         10.95670         3.52771         0.04726
C         12.19710         1.39540         0.34890
C         12.24930         4.25869        -0.20792
C         10.98175         6.29895        -0.84717
C         10.94881         7.70795        -1.20337
C         12.19392         5.62025        -0.76886
C         12.18911         8.46747        -1.18523
C         11.06313        10.18276        -2.39221
C         10.92152        12.56956        -1.98114
C         12.23094         9.79924        -1.73947
C         12.36978        12.74095        -1.60024
C         11.29902        14.76403        -0.43113
C         11.31008        16.23595        -0.28379
C         12.51960        14.12055        -1.03199
C         12.50996        16.95217        -0.54134
C         11.37736        19.00415         0.22611
C         12.53608        18.36077        -0.24281
C         13.46423         2.06390         0.26827
C         13.48430         3.42904        -0.33137
C         14.64552         1.45134         0.62840
C         14.78005         4.16520        -0.50580
C         13.45589         6.35591        -0.93828
C         13.40860         7.82832        -0.89625
C         14.76085         5.66130        -0.67507
C         14.65745         8.54040        -0.84664
C         13.55559        10.47506        -2.12126
C         13.47989        12.00489        -1.86383
C         14.73473         9.90070        -1.32508
C         14.78075        12.73118        -2.00307
C         13.65134        14.96232        -1.46623
C         13.65654        16.31278        -1.15325
C         14.80386        14.24725        -2.06211
C         14.84994        17.14670        -1.44557
C         13.75121        19.09380        -0.35764
C         14.92175        18.50307        -0.84601
C         15.96975         2.08467         0.49360
C         16.05442         3.52308        -0.05005
C         17.09510         1.63157         1.30623
C         17.16950         4.37743         0.40032
C         15.77116         6.47180         0.11177
C         15.81986         7.90886        -0.34926
C         17.11198         5.78489         0.27170
C         17.01008         8.64509        -0.11670
C         15.92052        10.60484        -1.17911
C         16.06007        11.97446        -1.73282
C         17.04441        10.06002        -0.45992
C         17.37089        12.71624        -1.58192
C         16.14237        14.97899        -2.13695
C         16.15450        16.46662        -1.84697
C         17.42394        14.20072        -1.92718
C         17.42976        17.15089        -1.50091
C         16.13592        19.19628        -0.86814
C         17.38522        18.57419        -1.17306
C         18.26619         2.36863         1.38270
C         18.31755         3.75405         0.95255
C         19.43697         1.79952         2.01085
C         19.47076         4.54353         1.24944
C         18.25644         6.57672         0.52277
C         18.17884         7.99059         0.34293
C         19.47286         5.94951         0.99154
C         19.36580         8.82601         0.61954
C         18.13653        10.85880        -0.08660
C         18.38228        12.17085        -0.63079
C         19.01618        10.25020         0.99588
C         19.51235        12.90714        -0.28150
C         18.66379        14.98013        -1.55584
C         18.61162        16.44847        -1.41201
C         19.80266        14.25263        -0.82657
C         19.91153        17.13072        -1.23940
C         18.55303        19.29205        -0.94264
C         19.87542        18.70452        -1.06689
C         20.57270         2.52945         2.18564
C         20.61942         3.92515         1.83254
C         21.76268         4.69707         2.09112
C         20.62949         6.71125         1.31611
C         20.62164         8.18799         1.13736
C         21.76163         6.06817         1.83802
C         21.50996         9.03854         1.96992
C         20.21477        11.08296         1.40988
C         20.43476        12.42604         0.77857
C         21.32728        10.36526         2.08069
C         21.74613        13.08325         0.90546
C         20.91628        15.05658        -0.26200
C         21.04565        16.43137        -0.60643
C         21.92933        14.36058         0.46498
C         22.17775        17.18972        -0.24602
C         21.02325        19.33223        -0.41969
C         22.15866        18.60089        -0.16264
O         20.50556         8.63966        -0.26784
O          4.16629        10.86589         2.01081
O         17.79380        13.18864        -2.89248
O         15.53973        12.11508        -3.08140
O         20.21344        18.03630        -2.32026
O          7.06819        14.94675         2.46152
O         10.59413        12.83335        -3.13457
O          6.77463         9.21602        -2.32072
O         12.31852        14.10696         0.43399
O         11.69460         4.18253         1.15611
O         16.42368         2.40297        -0.88452
O          8.76214        10.35708        -2.85892
O          7.76685        16.69367        -0.53242
O         15.33781        17.17668        -2.82368
O          4.58443        16.11314         3.02318
O         14.13809         3.49273        -1.62846
O         19.77271        12.28026         2.13464
O         14.44533         6.01365        -2.03108
O         15.36625        14.70698        -3.32729
O         19.80299        14.45636        -2.28409
O          8.37850         3.68467         1.54566
H          9.26071         3.46804         1.91866
O          3.49793         1.85417        -2.46182
H          2.64920         2.26901        -2.72783
O          2.04331        12.31592         2.42868
H          2.77257        12.38944         3.08201
O          5.76121        18.27853         3.81070
H          5.22306        17.54971         4.19805
O         18.18244        10.13105         2.18765
H         18.20253        11.01288         2.62463
O         13.83985        10.21607        -3.50193
H         13.14326        10.64102        -4.04700
O          1.84113         9.67727         1.86766
H          1.85926        10.57181         2.29673
O          3.09193        17.14282        -0.22314
H          2.33410        17.66982        -0.55225
O         15.20463         6.47843         1.47473
H         15.77626         7.04875         2.03248
O         11.13306        10.64028        -3.65339
H         10.21843        10.88210        -3.94545
H          0.28618         1.39085         0.02981
H          0.18534         3.84563        -0.15876
H          2.37593         0.14225        -0.41568
H          0.15654         5.81771        -0.18873
H          0.25036         8.24213         0.22778
H          0.82934        10.44587        -0.96105
H          0.97653        12.84903        -0.44177
H          0.64300        14.41482         1.50004
H          0.73474        16.87910         1.67374
H          2.14306        19.02286         1.76429
H          4.88665         0.18277        -0.57436
H          4.21542        20.02062         2.49692
H          7.33061         0.21482        -0.33717
H          6.78188        20.03189         1.97881
H          9.77310         0.24408        -0.00639
H          9.08888        20.05512         1.11974
H         12.19528         0.31270         0.54621
H         11.42000        20.07838         0.45884
H         14.60851         0.45539         1.09646
H         13.77519        20.14100        -0.02154
H         17.02808         0.65871         1.81644
H         16.15367        20.23939        -0.51816
H         19.39992         0.74440         2.31827
H         18.47758        20.30166        -0.51093
H         21.46522         2.07357         2.63824
H         22.65641         4.21875         2.51607
H         22.66809         6.64818         2.05847
H         22.32955         8.56167         2.52624
H         21.99159        10.95567         2.72807
H         22.54060        12.57887         1.47092
H         22.88251        14.86265         0.67967
H         23.08259        16.67669         0.10589
H         20.96154        20.39320        -0.13814
H         23.04615        19.10637         0.24419
