         286
 CSIRO Nanostructure Databank - Neutral Graphene Oxide Data Set
C        -11.35629         0.51065        -0.27163
C        -10.10867         1.29324        -0.43414
C         -8.84171         0.56513        -0.13919
C         -7.62145         1.36177         0.26588
C         -6.33545         0.57542         0.05532
C         -5.08936         1.29965        -0.34225
C         -3.77501         0.60005        -0.26073
C         -2.49053         1.38527        -0.29338
C         -1.29197         0.65412         0.23025
C         -0.05322         1.39349         0.63836
C          1.22732         0.59042         0.93449
C          2.50835         1.39347         0.76419
C          3.69867         0.74277         0.58909
C          4.97621         1.44203         0.65424
C          6.15403         0.75570         0.46540
C          7.36264         1.48700        -0.04625
C          8.71653         1.06795         0.52615
C          9.92054         1.57627        -0.29160
C         11.17530         0.72805        -0.11777
C        -10.07292         2.77924        -0.30984
C         -8.91665         3.48536        -0.26222
C         -7.61830         2.73717        -0.52472
C         -6.37579         3.41687         0.00891
C         -5.07179         2.83550        -0.54640
C         -3.83449         3.54325         0.03925
C         -2.51166         2.86110        -0.14735
C         -1.26158         3.55819         0.31940
C          0.07422         2.82932         0.11665
C          1.25911         3.60692         0.64571
C          2.39917         2.83619         1.27426
C          3.72527         3.64594         1.26717
C          5.06634         2.87783         1.16710
C          6.20263         3.64572         0.48423
C          7.35722         2.97942         0.17385
C          8.65951         3.67419         0.21566
C          9.86815         3.04795         0.12357
C         -8.87921         4.94279         0.19511
C         -7.65845         5.79430        -0.15751
C         -6.45486         5.15247        -0.81956
C         -5.07201         5.77303        -0.45523
C         -3.84796         5.03908         0.05078
C         -2.55162         5.79509         0.06379
C         -1.29024         5.04668         0.36757
C          0.01267         5.79523         0.42388
C          1.34915         5.04949         0.19235
C          2.52994         5.90121         0.69023
C          3.75643         5.15980         1.13850
C          5.13334         5.92769         1.16343
C          6.37781         5.12130         0.73751
C          7.38775         5.77836        -0.17126
C          8.48656         5.11979         0.61511
C         -7.63664         7.12875         0.06255
C         -6.36022         7.93858         0.26952
C         -5.08064         7.23258        -0.15767
C         -3.79366         7.96444         0.20720
C         -2.54416         7.14939        -0.03317
C         -1.27554         7.89718        -0.40906
C         -0.01005         7.25363         0.15491
C          1.31005         7.88784        -0.22947
C          2.50737         7.26178         0.49084
C          3.74824         8.11206         0.47005
C          5.03308         7.31038         0.44108
C          5.83566         7.48865        -0.86116
C          7.24854         6.98260        -0.74638
C         -6.28802         9.38672        -0.17972
C         -5.11954        10.00633        -0.42549
C         -3.79352         9.28493        -0.61000
C         -2.53373        10.04202        -0.22627
C         -1.35570         9.38986        -0.13932
C         -0.06971        10.12583         0.16692
C          1.22372         9.39071        -0.16163
C          2.34525        10.10091        -0.35878
C          3.72985         9.53746        -0.18820
C          4.65868         9.64143        -1.37655
C          5.70472         8.82290        -1.54746
C        -11.33081        -0.83167        -0.07991
C        -10.10899        -1.60134         0.15395
C         -8.85912        -0.82609         0.55525
C         -7.60168        -1.59140         0.05858
C         -6.32497        -0.78118         0.21366
C         -5.05040        -1.51014         0.45531
C         -3.73769        -0.77552         0.33187
C         -2.52226        -1.55516         0.06024
C         -1.25258        -0.79056        -0.24585
C         -0.08196        -1.57286         0.36708
C          1.19885        -0.74229         0.20449
C          2.48114        -1.42818        -0.09717
C          3.79639        -0.67374        -0.01026
C          4.91878        -1.48612         0.62007
C          6.21059        -0.72808         0.66946
C          7.51042        -1.55824         0.69876
C          8.74999        -1.02451        -0.00229
C         10.09203        -1.48350         0.55440
C         11.22488        -0.61620         0.01005
C        -10.06158        -2.95745         0.11492
C         -8.87530        -3.80600         0.56348
C         -7.56369        -2.99262         0.65321
C         -6.25382        -3.72301         0.63917
C         -4.99232        -2.98241         0.40454
C         -3.78863        -3.63938         0.30401
C         -2.55240        -2.92114         0.05259
C         -1.37438        -3.69111        -0.51174
C         -0.06722        -2.89864        -0.38485
C          1.22039        -3.62023        -0.47003
C          2.44336        -2.93470         0.05823
C          3.65119        -3.75022         0.39903
C          4.95158        -3.01462         0.59669
C          6.25014        -3.74727         0.46010
C          7.43580        -2.95098        -0.05044
C          8.78584        -3.68768         0.07842
C         10.00103        -2.98506         0.22936
C         -8.67371        -5.05499        -0.32409
C         -7.47986        -5.90053         0.12668
C         -6.22720        -5.18878         0.42402
C         -5.02778        -5.83823         0.34681
C         -3.73718        -5.11897         0.47284
C         -2.43145        -5.86447         0.35491
C         -1.13299        -5.08563         0.12103
C         -0.04663        -5.85376        -0.66372
C          1.25939        -5.08619        -0.78321
C          2.57487        -5.80089        -0.80984
C          3.61521        -5.30866         0.22232
C          4.97703        -5.97234         0.03164
C          6.26998        -5.22316         0.17739
C          7.49831        -5.80990        -0.52530
C          8.75054        -5.08566        -0.08456
C         -7.49344        -7.25869         0.11764
C         -6.27460        -8.05076         0.56888
C         -5.01084        -7.30558         0.15027
C         -3.72085        -8.05051         0.10763
C         -2.42141        -7.33481         0.13410
C         -1.27677        -8.04124        -0.11019
C         -0.01811        -7.33476        -0.48588
C          1.25435        -8.11453        -0.12406
C          2.59077        -7.26496        -1.23423
C          3.87700        -7.99087        -1.06428
C          5.05606        -7.30981        -0.57299
C          6.29196        -8.01895        -0.38643
C          7.48846        -7.31106        -0.31532
C         -6.18343        -9.47913         0.07187
C         -5.02120       -10.14981         0.02854
C         -3.70962        -9.52903         0.46824
C         -2.45368       -10.18995        -0.08007
C         -1.29839        -9.50071        -0.28606
C         -0.06430       -10.23467        -0.82288
C          1.29124        -9.54471        -0.62155
C          2.46329       -10.19116        -0.81347
C          3.81646        -9.54196        -0.87983
C          5.02356       -10.14349        -0.27835
C          6.19733        -9.46311        -0.18971
O          4.78184         8.25289         1.51082
O         -1.68266        -3.90043        -1.90079
H         -0.90211        -3.61034        -2.42995
O          1.66200        -7.93476         1.08039
O         -1.07445         1.04840         1.61961
O          7.12351        -2.78747        -1.44693
O          2.68600         8.05194        -2.20341
H          3.31705         7.28455        -2.09762
O          7.28559         1.25007        -1.47764
H          6.37345         1.45877        -1.76965
O          3.65933         4.50937         2.44745
O         -7.74670         1.64046         1.64757
H         -8.11776         0.78246         2.07790
O         -4.04229         4.25124         1.27927
O         -8.82228        -0.62666         1.92697
O         -2.34355         2.23856        -1.47436
O         -1.42615         4.21222         1.59095
O         -0.28601        -6.70121        -1.82076
O         -0.01758         6.77132         1.52079
O          1.43735         7.53795        -1.69554
H         -0.29376         7.91673        -2.16987
O          4.09642        -8.94105        -2.15661
O          2.03143         2.66611         2.69007
H          2.27409         3.50817         3.14670
O          0.27271         2.67277        -1.33689
H         -0.60003         2.40778        -1.73726
O         -1.21543         7.72636        -1.86337
O         10.29992        -1.39533         1.97276
H          9.43897        -1.52578         2.43867
O         -3.63239        -9.65456         1.91237
H         -2.82609        -9.18954         2.21909
O          7.51973         5.15132         1.75920
O          5.39701         6.17485         2.54806
H          4.77559         6.86466         2.86733
O          1.68819        -0.78062        -1.16307
O         -4.86669         6.75113        -1.51654
O          5.39312        -0.99046         1.88528
O         -7.74164        -1.83137        -1.37222
H         -8.08370        -1.01527        -1.80672
O         -6.31666        -8.10256         2.01853
H         -6.47282        -7.19424         2.35281
O          8.82617         0.78133         1.71432
O         -2.97987        -5.53225         1.68766
O         -4.44791        -7.73393        -1.13604
O          0.66042        -2.90093        -1.63903
O          5.09771         6.53849        -1.73211
H          5.58783         6.47340        -2.58018
O          1.20542         0.20965         2.33104
H          1.33605         1.03808         2.86181
O         -9.23422         0.66140        -1.50242
O         -6.65310         4.88239        -2.05985
O          2.70845        -3.32177         1.43747
O          5.71274        -3.47293         1.76857
O         -6.88078        -3.20560         1.89870
O         -4.99693         3.07663        -1.95227
H         -4.55925         2.29412        -2.36760
O         -1.08506        -0.69638        -1.67829
H         -0.17944        -0.99200        -1.92860
O          2.10098        -7.48198        -2.49238
H          1.36504        -6.84333        -2.67864
O         -3.71763         9.01086        -2.01985
H         -2.90526         8.47820        -2.19859
O          1.55678         5.01115        -1.26054
H          1.13096         4.18412        -1.60887
O         -4.34210        -0.93577         1.63565
O          5.77173        -5.97411         1.30431
O          5.53641         2.72422         2.52611
H          5.43185         3.59652         2.97229
O         -9.20002        -4.29819         1.87727
H         -9.04537        -3.56928         2.51636
O         -8.85598         4.84360         1.64679
H         -8.76008         5.74707         2.01866
O          2.13081        -5.08370        -1.99154
O         -0.50003        -4.88464         1.39548
H         -1.21049        -4.82220         2.07722
O          4.29975        10.50399         0.74158
H          5.00717        10.04347         1.25126
O          4.23942        -0.48149        -1.38442
H          3.43717        -0.27009        -1.91653
O          7.77968        -1.84882         2.06858
H          6.90743        -1.87004         2.53904
O          9.71961         1.59492        -1.71568
H          9.43262         0.69126        -1.99002
O         -7.49196         2.45289        -1.89463
H         -7.20302         3.29579        -2.35091
O         -6.39210         3.62780         1.33635
H         -7.31341         3.82167         1.66481
O         -0.34371        -1.86955         1.73526
H         -0.04723        -1.10487         2.29132
O         -0.24759       -10.44570        -2.23108
H         -0.41922        -9.57990        -2.65629
O          3.09290        -5.83173         1.44671
H          3.78028        -5.72616         2.14049
O         -4.49892         0.63087        -1.52479
O          8.69122        -0.79277        -1.22853
H          7.70340        -2.06826        -1.81628
O         -6.34673         7.98515         1.73383
H         -5.47624         8.37699         2.00472
O         -0.05398        10.39510         1.57893
H          0.81049        10.79464         1.80775
O         -3.74084         8.34150         1.61019
H         -3.29028         7.63248         2.11703
O         -8.46880        -4.64192        -1.68045
H         -8.12877        -3.71604        -1.70058
O          7.31787        -5.56110        -1.95820
H          7.34453        -4.58111        -2.09279
H         12.21628        -1.09689        -0.03480
H         12.11658         1.24042        -0.38129
H         10.79767         3.61062         0.30866
H          9.42972         5.67555         0.81644
H          8.09585         7.56029        -1.14337
H          6.43074         9.02347        -2.35203
H          4.58215        10.55863        -1.98010
H          2.29380        11.20209        -0.38359
H         -0.06456        11.11056        -0.38887
H         -2.57159        11.13293        -0.07566
H         -5.12831        11.08461        -0.65446
H         -7.21547         9.97959        -0.13149
H         -8.55453         7.61918         0.43450
H         -9.82592         5.46532        -0.11594
H        -11.03382         3.28638        -0.12598
H        -12.31751         1.03439        -0.38222
H        -12.28310        -1.38431        -0.05279
H        -10.97906        -3.51569        -0.13615
H         -9.59725        -5.68927        -0.28865
H         -8.42093        -7.79968        -0.12845
H         -7.11539        -9.97976        -0.23468
H         -5.00418       -11.19655        -0.31372
H         -2.46153       -11.28392        -0.21120
H         -0.01618       -11.25202        -0.35489
H          2.45088       -11.26495        -1.06843
H          4.97294       -11.19593         0.03748
H          7.09832        -9.98409         0.16751
H          8.44061        -7.84940        -0.19617
H          9.69199        -5.65269        -0.01434
H         10.93120        -3.57534         0.28175
