         234
 CSIRO Nanostructure Databank - Neutral Graphene Oxide Data Set
C          1.31594         2.01739         0.80088
C          1.27312         3.43486         0.53582
C          2.47759         1.31389         0.68376
C          2.35629         4.10818         0.05980
C          1.04876         6.34834        -0.16295
C          1.03627         7.69010        -0.06280
C          2.30670         5.56131        -0.25747
C          2.26840         8.50526         0.12971
C          1.10508        10.72166        -0.08833
C          1.13280        12.13616        -0.35286
C          2.24971         9.97936        -0.10383
C          2.32391        12.83472        -0.34658
C          1.59438        14.89013        -1.52606
C          1.81547        16.25351        -1.89561
C          2.40920        14.26419        -0.61690
C          2.76854        17.02716        -1.27850
C          2.99914        18.38229        -1.69688
C          3.70657         1.96896         0.30807
C          3.63232         3.35447        -0.29961
C          4.91835         1.35436         0.48801
C          4.90422         4.13192        -0.01926
C          3.59543         6.32113        -0.20824
C          3.58559         7.79739         0.07641
C          4.85335         5.58999         0.13458
C          4.85049         8.55312        -0.16955
C          3.52831        10.66377        -0.55908
C          3.57846        12.12316        -0.17434
C          4.81163         9.93893        -0.26606
C          4.76418        12.78027         0.09888
C          3.48781        15.00621         0.08279
C          3.45424        16.53801        -0.01459
C          4.71710        14.21475         0.50609
C          4.82809        17.18633         0.22017
C          4.06412        19.10550        -1.24346
C          5.07505        18.51611        -0.40105
C          6.17495         2.04874         0.31047
C          6.12553         3.48898         0.09151
C          7.38457         1.41616         0.52131
C          7.37842         4.21360        -0.04342
C          6.14695         6.38215         0.06529
C          6.09709         7.83855        -0.19591
C          7.37936         5.63698        -0.24703
C          7.28759         8.51039        -0.43654
C          6.02103        10.70695        -0.28190
C          6.03884        12.08838        -0.00830
C          7.26096         9.97628        -0.54786
C          7.28750        12.77936         0.27550
C          6.00788        14.89666         0.99685
C          6.03366        16.41471         0.72157
C          7.29601        14.19185         0.59928
C          7.36461        17.07726         0.66074
C          6.28061        19.14356        -0.22602
C          7.43273        18.49140         0.35425
C          8.63750         2.11666         0.40543
C          8.58958         3.50460         0.01761
C          9.86440         1.47523         0.60083
C          9.84335         4.13981        -0.37562
C          8.53136         6.35365        -0.59487
C          8.53985         7.79389        -0.55466
C          9.80699         5.66209        -0.81191
C          9.75589         8.49555        -0.56204
C          8.57020        10.73392        -0.31926
C          8.50516        12.08122         0.23404
C          9.74745         9.87648        -0.02458
C          9.74750        12.65780         0.77880
C          8.48873        14.88404         0.78077
C          8.52085        16.32856         0.85149
C          9.76272        14.16764         0.99847
C          9.80410        16.99574         1.11970
C          8.64331        19.16052         0.36077
C          9.85040        18.54794         0.88917
C         11.11413         2.17882         0.50479
C         11.08977         3.52673         0.08099
C         12.36554         1.58323         0.84174
C         12.32048         4.29299         0.08360
C         11.04899         6.44176        -0.81255
C         11.01862         7.83058        -0.70655
C         12.31364         5.71435        -0.52697
C         12.25516         8.62444        -0.58857
C         11.02276        10.51833         0.42333
C         11.05733        11.98690         0.58053
C         12.27622         9.83167         0.07391
C         12.24410        12.66081         0.69579
C         11.07163        14.86024         0.92392
C         11.09118        16.28364         1.01620
C         12.26448        14.11295         0.80496
C         12.31423        16.99368         1.08950
C         11.15735        19.11415         0.59494
C         12.33988        18.44175         0.84449
C         13.59351         2.25797         0.63832
C         13.60531         3.59964         0.14151
C         14.85043         1.70255         1.01797
C         14.81298         4.28120        -0.12603
C         13.55431         6.09323        -1.13506
C         13.50316         8.15698        -1.15634
C         14.81997         5.61014        -0.73501
C         14.74974         8.58119        -0.79305
C         13.54808        10.44854         0.48731
C         13.57546        11.93001         0.89255
C         14.83542         9.73216         0.11552
C         14.69364        12.67168         0.11412
C         13.52330        14.80001         0.82882
C         13.52786        16.20463         1.12689
C         14.75807        14.11123         0.59053
C         14.76378        16.75784         1.51622
C         13.55814        19.19975         0.57408
C         14.76512        18.98399         1.19334
C         16.06170         2.34422         0.76475
C         16.05815         3.61903         0.05915
C         17.27337         1.75695         1.35416
C         17.22865         4.31548        -0.39120
C         16.01253         6.37584        -0.91469
C         15.96796         7.85957        -1.36063
C         17.26988         5.72922        -0.73938
C         17.28187         8.56130        -1.03259
C         16.12742        10.48608         0.10770
C         16.05673        11.97883         0.20631
C         17.32606         9.81508        -0.47926
C         17.25469        12.78213        -0.26474
C         15.99075        14.76050         0.72668
C         16.00093        16.10168         1.26035
C         17.27315        14.14409         0.42037
C         17.21729        16.76529         1.48896
C         16.02266        19.58336         0.87666
C         17.23828        19.01541         1.26672
C         18.45850         1.78848         0.67830
C         18.41467         3.58440        -0.54215
C         19.83508         1.55567         1.05545
C         19.67540         4.16828        -0.66317
C         18.52857         6.34866        -1.07045
C         18.53219         7.83804        -1.53457
C         19.71399         5.54459        -1.09420
C         19.80973         8.61983        -1.19909
C         18.56057        10.59381        -0.36904
C         18.53930        11.98004        -0.12999
C         19.80367         9.93757        -0.63914
C         19.75569        12.69589         0.00933
C         18.46519        14.80412         0.61778
C         18.51661        16.18528         1.15770
C         19.71672        14.17036         0.13859
C         19.78825        17.07647         0.97608
C         18.49388        19.34579         0.73253
C         19.65964        18.53610         0.63149
C         20.87480         2.18991         0.42820
C         20.85693         3.36346        -0.43755
C         22.07022         3.86101        -0.91218
C         20.97135         5.88120        -1.69986
C         21.02556         8.18296        -1.71537
C         22.09398         5.06976        -1.63604
C         22.25043         8.85917        -1.54085
C         21.02719        10.66663        -0.49720
C         20.99554        12.04413        -0.09454
C         22.25405        10.07757        -0.90137
C         22.21940        12.78021         0.15486
C         21.01183        14.92985         0.17899
C         21.14059        16.38838         0.62992
C         22.23890        14.12437         0.30906
C         21.98820        17.10617        -0.38340
C         20.71897        19.13960        -0.06387
C         21.82787        18.43563        -0.60553
O         19.43160        16.56476         2.28491
O         10.13461         9.86169         1.39876
O          9.73225        17.94754         2.21405
O          3.63435        14.51332         1.45309
O         20.27799        14.81571        -1.08692
O         14.25183         9.57103         1.44853
O          5.15233        17.14737         1.64911
O          8.05089        10.54133        -1.66214
O         13.43447         7.10146        -2.10035
O         12.35859         5.50738         0.93722
O          9.82907         4.57987        -1.78689
O         16.35668        11.19231         1.38235
O          9.64655        13.23071         2.11930
O         14.78249        17.96672         2.18619
O          5.51512         6.04340         1.35645
O         21.08042         7.02209        -2.50556
O         17.21261        17.93769         2.20424
O          2.98440         8.12550         1.37621
O          3.06322         5.91557        -1.50752
O         18.33514         2.19952        -0.67032
O          3.44861        10.63700        -2.03829
H          2.66205        11.16724        -2.29127
O          6.01293        14.74832         2.43594
H          5.14387        15.08032         2.75590
O         15.82158         7.88521        -2.79967
H         16.70088         7.67478        -3.19858
O         13.86353        12.02280         2.29269
H         14.36353        11.20852         2.54065
O         18.47327         7.80607        -2.99664
H         19.30396         7.37111        -3.30289
O         17.05436        13.03653        -1.69037
H         17.85420        13.49308        -2.03124
O          3.58203         3.17082        -1.75429
H          3.44515         4.06886        -2.14046
O         21.91848        16.39308         1.85422
H         21.28341        16.34933         2.60639
O         14.30796        12.65082        -1.28149
H         15.07994        12.96745        -1.80788
O          2.59892        17.00474         1.05481
H          3.10066        16.86639         1.88983
H          0.39514         1.52015         1.13521
H          0.33124         3.96737         0.73462
H          2.51259         0.24737         0.95197
H          0.09562         5.80664        -0.25839
H          0.06976         8.21594        -0.07147
H          0.13282        10.25583         0.12843
H          0.18096        12.67200        -0.47007
H          0.80728        14.32085        -2.04069
H          1.24020        16.67230        -2.73435
H          2.31294        18.81975        -2.43729
H          4.94931         0.31885         0.86237
H          4.23221        20.12943        -1.60799
H          7.40261         0.34354         0.76690
H          6.42498        20.15207        -0.64331
H          9.87565         0.40864         0.86960
H          8.71298        20.16554        -0.08164
H         12.37780         0.56699         1.26134
H         11.19727        20.13756         0.19380
H         14.86201         0.72893         1.53030
H         13.46134        20.06423        -0.09876
H         17.19940         1.31368         2.35794
H         16.04090        20.38417         0.12505
H         20.05854         0.82572         1.84831
H         18.54902        20.31068         0.20504
H         21.89032         1.87072         0.71734
H         22.99993         3.29407        -0.76403
H         23.01631         5.39982        -2.13134
H         23.17197         8.42020        -1.94326
H         23.19932        10.62197        -0.78631
H         23.15845        12.22251         0.27280
H         23.16493        14.64041         0.59888
H         22.80771        16.54545        -0.85363
H         20.62786        20.21012        -0.29790
H         22.51973        18.97705        -1.26627
