         247
 CSIRO Nanostructure Databank - Neutral Graphene Oxide Data Set
C         30.43768        31.84665        -0.45023
C         30.35844        32.99479         0.00784
C         30.38494        36.12036         0.22866
C         30.29806        37.38946         0.21108
C         30.28040        40.55782         0.02840
C         30.24342        41.79946        -0.15114
C         32.87838        29.19705        -1.54559
C         31.80492        29.82125        -1.42099
C         32.78663        31.87666        -0.74376
C         31.58522        31.13209        -0.91063
C         32.80237        33.16942        -0.09079
C         31.52136        33.76511         0.58427
C         32.66567        36.05516         0.68272
C         31.43881        35.25417         0.40491
C         32.66862        37.55013         0.52165
C         31.39639        38.27754         0.33201
C         32.61885        40.48693         0.27831
C         31.36138        39.67402         0.24635
C         32.61503        41.88793        -0.24125
C         31.41372        42.60634        -0.35758
C         32.72671        44.52459        -0.70608
C         31.58761        44.01207        -0.66454
C         35.51332        27.68204        -1.41554
C         35.44341        29.10680        -1.39188
C         34.19349        29.82922        -1.67353
C         35.35595        31.98094        -0.83164
C         34.07757        31.32010        -1.23388
C         35.28740        33.28606        -0.17148
C         33.99277        33.88038         0.08450
C         35.21042        36.09205         0.42806
C         33.96753        35.28220         0.59269
C         35.15110        37.54678         0.80814
C         33.85987        38.24017         0.54716
C         35.15241        40.31255        -0.18954
C         33.91020        39.72248         0.46715
C         35.18131        41.87317        -0.07307
C         33.93151        42.46408        -0.78055
C         35.24996        44.61206        -1.00260
C         34.04969        44.00534        -0.78230
C         35.55059        46.00171        -0.95707
C         37.62328        27.25042        -0.44381
C         36.28709        26.85479        -0.90690
C         37.77019        28.83054        -0.41260
C         36.60281        29.66512        -0.85826
C         37.75015        31.74568         0.11827
C         36.66648        31.14071        -0.67873
C         37.69654        33.12026         0.39216
C         36.49693        33.88459         0.22312
C         37.71107        36.09204         0.99670
C         36.51125        35.36560         0.38170
C         37.73723        37.53758         0.53059
C         36.48720        38.29895         0.72912
C         37.61900        40.21622        -0.34933
C         36.47401        39.66479         0.20136
C         37.41627        41.50473        -1.00978
C         36.42594        42.39785        -0.76424
C         37.88074        44.55142        -0.78456
C         36.56359        43.83657        -1.28916
C         37.87394        45.98206        -0.41487
C         36.60888        46.60444        -0.71898
C         40.00580        24.44650         0.56661
C         38.96929        25.15991         0.30721
C         40.02661        27.54531         1.44035
C         38.39328        26.37346         0.45984
C         40.07352        28.80000         0.80805
C         38.85647        29.52747         0.35130
C         40.12982        31.51873         1.06954
C         38.85601        30.90098         0.50728
C         40.16008        33.04820         1.00062
C         38.84199        33.80720         1.12824
C         40.12118        35.90757         0.34300
C         38.94960        35.28045         0.73515
C         40.11479        37.35068        -0.05612
C         38.88043        38.15927         0.06704
C         40.19413        40.27691        -0.33744
C         38.92918        39.57720        -0.26377
C         40.30468        41.73286        -0.44237
C         39.32858        42.53270        -1.02520
C         40.37573        44.69228        -0.33019
C         39.11939        43.92016        -0.72989
C         40.10900        45.71612         0.77698
C         38.91464        46.57960         0.25526
C         40.06120        48.62725         1.06682
C         39.11537        47.91076         0.67335
C         42.56388        24.46552         0.95754
C         41.17166        24.60083         1.24534
C         42.47858        27.40151         1.52281
C         41.20294        26.83793         1.76984
C         42.54440        28.74984         1.04441
C         41.34198        29.41591         0.70197
C         42.65480        31.54062         0.38786
C         41.31426        30.86183         0.27916
C         42.60585        33.00375         0.13647
C         41.37921        33.75892         0.53312
C         42.60183        35.93240         0.51303
C         41.35061        35.20306         0.23166
C         42.62194        37.43207         0.45718
C         41.41221        38.11612        -0.07998
C         42.68577        40.25199         0.01500
C         41.41821        39.58908        -0.08569
C         42.71729        41.65607         0.07756
C         41.51841        42.41971        -0.04626
C         42.76972        44.54030         0.32830
C         41.56039        43.82015         0.01675
C         42.70430        45.83818         0.83564
C         41.40380        46.48235         1.13137
C         42.69707        48.61460         1.30129
C         41.35366        48.04081         1.42487
C         43.50463        25.18854         1.32338
C         45.05126        27.29011         1.33414
C         43.74466        26.60003         1.61636
C         45.04628        28.76103         1.01243
C         43.83222        29.42771         0.85535
C         45.15728        31.55450         0.31002
C         43.83241        30.84030         0.46274
C         45.06820        33.02235         0.73513
C         43.87831        33.77277         0.20482
C         45.08262        35.88451         0.67197
C         43.89370        35.22771         0.48363
C         45.11801        37.36528         0.76655
C         43.91254        38.13780         0.40182
C         45.24817        40.16049         0.03887
C         43.94912        39.49145         0.12792
C         45.24775        41.61690        -0.26319
C         43.98284        42.39321        -0.11789
C         45.26022        44.51701         0.19596
C         44.05057        43.85085         0.15652
C         45.16744        46.07420         0.29979
C         44.04967        46.49670         1.24773
C         43.73903        47.96189         1.23899
C         47.00666        27.29512         0.00451
C         46.20894        26.63518         0.69136
C         47.29285        28.70237        -0.04653
C         46.29883        29.40857         0.62063
C         47.21343        31.55054        -0.28530
C         46.43085        30.90738         0.86810
C         47.43143        33.07605        -0.29484
C         46.31003        33.79083         0.39530
C         47.62095        35.86208         0.39774
C         46.34598        35.15365         0.54164
C         47.66841        37.23280         0.34472
C         46.45477        38.05385         0.57178
C         47.75890        40.18758         0.40563
C         46.43991        39.47566         0.16789
C         47.81589        41.60272        -0.13524
C         46.54255        42.37378        -0.25877
C         47.77191        44.42843         0.35504
C         46.53808        43.81915         0.06980
C         47.58967        45.82989         0.64056
C         46.55091        46.48930         0.72917
C         54.11937        30.09085        -3.63865
C         48.42049        29.33386        -0.75758
C         49.69588        31.39343        -0.64634
C         48.43249        30.81125        -0.76562
C         49.92681        32.69816         0.04310
C         48.73772        33.57914         0.25997
C         50.09484        35.65848         0.46003
C         48.86712        35.06305         0.36958
C         50.15264        37.18830         0.63530
C         48.97707        37.88639        -0.06468
C         50.23156        40.04249         0.05099
C         49.02768        39.40062         0.11113
C         50.31714        41.55308        -0.21369
C         49.06725        42.32873         0.15152
C         50.34376        44.24918         0.57400
C         49.02387        43.71010         0.34380
C         54.39765        30.89684        -2.72146
C         53.48078        32.37715        -0.99760
C         54.59830        31.79360        -1.69546
C         52.43715        32.73154        -0.48252
C         51.28957        33.33018         0.16692
C         52.54897        35.64297         0.15731
C         51.35239        34.81885         0.47207
C         52.44844        36.88304         0.08094
C         51.45603        37.87941         0.14698
C         52.62523        40.09530        -0.14891
C         51.48611        39.24759        -0.00673
C         52.70445        41.32581         0.16245
C         51.66966        42.24489         0.26774
C         51.41843        43.58759         0.55060
O         47.30708        41.92884        -1.45944
O         45.86694        37.87484         1.92158
O         34.14849        30.89476        -2.63229
O         41.11151        33.52997         2.01396
O         38.36090        27.95244        -1.45257
O         35.92982        35.96144        -0.83907
O         51.52795        33.84375         1.51211
O         45.86118        31.47207        -1.04758
O         41.04165        25.54660         2.34679
O         33.35524        35.54525         1.88999
O         40.85554        37.54533        -1.31230
O         38.43426        41.89932        -1.89624
O         43.29602        33.42915        -1.08630
O         42.42720        36.77478         1.75240
O         49.21454        32.74154         1.35193
O         41.30393        47.08478         2.49317
O         36.36351        31.91091        -1.87629
O         44.49572        41.99988        -1.46656
O         49.34298        28.65824        -1.23921
O         44.68088        26.92598         2.67505
O         33.33882        40.41192         1.61166
O         35.79467        38.02072         2.00917
O         38.75422        26.97999         1.71439
O         55.81275        32.15927        -1.30878
H         55.78380        32.80205        -0.57305
O         40.94405        30.98494        -1.11915
H         41.67415        30.63727        -1.67326
O         47.77376        40.39857         1.85598
H         47.60355        39.53727         2.29789
O         44.87490        33.04977         2.17173
H         45.59604        32.51495         2.58667
O         40.23071        31.14582         2.45038
H         40.81783        31.80474         2.88790
O         33.99075        42.09094        -2.17390
H         33.26020        42.54637        -2.64389
O         47.41854        33.46934        -1.68917
H         46.65041        33.00758        -2.10025
O         50.04427        37.45544         2.04117
H         50.71576        36.92610         2.52068
O         50.38676        41.61620        -1.66005
H         50.26395        42.54697        -1.94384
O         36.65977        43.79778        -2.72671
H         37.40976        43.20235        -2.95721
O         38.50178        33.72148         2.54908
H         39.34975        33.83163         3.03879
O         46.84811        31.20688         2.19734
H         47.77661        31.54100         2.17690
O         44.86568        46.58892        -0.98172
H         45.59085        46.36501        -1.60023
O         40.76792        45.48952        -1.48120
H         41.06609        44.88772        -2.19470
O         39.65989        45.04442         1.95295
H         39.82079        45.64222         2.71742
O         34.98440        39.90335        -1.57065
H         35.59818        40.41900        -2.13777
O         35.20471        42.28541         1.29195
H         34.48239        41.81102         1.77549
O         44.36952        46.07920         2.56512
H         43.67606        46.41549         3.17201
O         37.48631        36.14854         2.42716
H         37.68148        35.24826         2.79469
O         50.79404        30.75360        -1.01466
H         50.55282        29.82229        -1.31142
O         31.64393        33.46374         1.97087
H         31.10759        34.09516         2.49332
O         49.15204        37.63036        -1.48187
H         48.54732        38.20920        -1.99138
