         331
 CSIRO Nanostructure Databank - Neutral Graphene Oxide Data Set
C         30.36572        57.08059         0.33566
C         30.33947        58.45849         0.55851
C         29.15712        59.13339         0.94471
C         30.38407        61.19322         1.43698
C         29.18478        60.47385         1.34246
C         32.87008        52.88073        -0.30737
C         32.85351        54.27394        -0.18186
C         31.61178        54.97805        -0.06327
C         32.85715        57.08159         0.24123
C         31.57057        56.35510         0.10787
C         32.85656        58.54669         0.44560
C         31.56305        59.30706         0.27374
C         32.84121        61.24050         1.21103
C         31.60634        60.61728         1.03047
C         35.35005        48.57592        -1.13200
C         35.37814        50.03063        -0.71588
C         34.13933        50.73360        -0.49899
C         35.34180        52.87335        -0.32958
C         34.07837        52.11948        -0.39107
C         35.34524        54.34327        -0.70330
C         34.08741        55.05803        -0.29120
C         35.28087        57.26279        -0.69172
C         34.10013        56.42082        -0.19606
C         35.31315        58.71532        -0.12697
C         34.12725        59.31164         0.30698
C         35.30256        61.33752         1.03694
C         34.08301        60.64511         0.83089
C         37.84972        44.32842        -0.43771
C         37.87134        45.72586        -0.63959
C         36.65428        46.47255        -0.64425
C         37.87274        48.55217        -0.93118
C         36.64772        47.84405        -0.86790
C         37.84362        50.02444        -1.27412
C         36.58319        50.69329        -0.76755
C         37.82867        52.90894        -1.00426
C         36.63359        52.13194        -0.49480
C         37.86077        54.33748        -0.50704
C         36.58321        55.04810        -0.08760
C         37.77695        57.01212        -0.91879
C         36.58469        56.48696        -0.53139
C         37.77327        59.10878        -0.56612
C         36.51077        59.51761        -0.03958
C         37.78911        61.55514         0.82662
C         36.50431        60.77101         0.64297
C         40.39868        39.99969        -0.28008
C         40.28962        41.41249        -0.48336
C         39.07999        42.14051        -0.39330
C         40.20023        44.24597        -1.05486
C         39.02086        43.55684        -0.59748
C         40.30406        45.67224        -1.06877
C         39.11984        46.42019        -0.84794
C         40.32444        48.62392        -0.79004
C         39.10759        47.86900        -0.86992
C         40.32241        50.03645        -0.67713
C         39.10034        50.76964        -0.86061
C         40.32533        52.88609        -0.55094
C         39.10997        52.15077        -0.76660
C         40.31488        54.29795        -0.50967
C         39.06533        55.01843        -0.54344
C         40.24092        57.23828        -0.41175
C         39.07585        56.46682        -0.58942
C         40.23965        58.69552        -0.21648
C         39.03352        59.49381        -0.07356
C         40.27976        61.41890         0.73492
C         39.07229        60.79395         0.54900
C         42.51338        35.75347         0.78678
C         42.61361        36.91963         0.05351
C         41.54973        37.87084        -0.15376
C         42.84199        40.01784        -0.74488
C         41.60051        39.26008        -0.46406
C         42.82465        41.52461        -0.55670
C         41.46709        42.10639        -0.94044
C         43.13888        44.49736        -1.30602
C         41.28384        43.38927        -1.41648
C         42.90506        45.75906        -0.87161
C         41.60749        46.43101        -1.19557
C         42.84104        48.59209        -0.41563
C         41.61232        47.91684        -0.91514
C         42.75808        50.02495         0.05431
C         41.52763        50.76396        -0.41062
C         42.75905        52.89366         0.00690
C         41.54630        52.15774        -0.36394
C         42.66501        54.33481         0.10620
C         41.51007        55.04452        -0.24315
C         42.70277        57.20774        -0.12053
C         41.49183        56.51007        -0.23688
C         42.72083        58.65266        -0.03620
C         41.46697        59.35182         0.05230
C         42.72550        61.42201         0.51447
C         41.50698        60.74785         0.41651
C         44.97825        33.29713         2.31862
C         43.79431        33.79067         1.87194
C         44.89549        35.99180         1.51816
C         43.81838        35.01393         0.98928
C         45.02032        37.16590         0.56548
C         43.98333        37.32486        -0.29326
C         45.38605        40.00386        -0.79214
C         44.03811        39.41530        -0.99282
C         45.40065        41.52653        -0.89657
C         44.11881        42.24870        -0.98811
C         45.42230        44.32627        -0.50344
C         44.22802        43.63591        -0.92169
C         45.31876        45.73174        -0.05689
C         44.01656        46.45849        -0.18792
C         45.27652        48.63705         0.09096
C         44.02228        47.93527        -0.19708
C         45.28678        50.03361         0.16077
C         44.04125        50.78272        -0.27393
C         45.15111        52.82038         0.90553
C         43.95892        52.21615         0.19361
C         45.12976        54.34733         0.81178
C         43.85894        55.09230         0.49725
C         45.17044        57.16071         0.14340
C         43.94918        56.50928         0.10865
C         45.22968        58.62195        -0.22442
C         43.93529        59.33942         0.06771
C         45.19208        61.44517         0.38667
C         43.96477        60.75514         0.30187
C         46.22652        33.96853         2.04242
C         47.45684        35.94752         1.23281
C         46.24560        35.27247         1.58660
C         47.52339        37.28153         0.82444
C         46.21259        38.07422         0.82704
C         47.63581        40.11322         0.42513
C         46.39372        39.35348         0.03652
C         47.73582        41.51046        -0.08347
C         46.60178        42.22356        -0.41579
C         47.76457        44.31461         0.35771
C         46.58971        43.64074        -0.28362
C         47.79432        45.79777         0.08519
C         46.57671        46.49870         0.05865
C         47.75595        48.62407         0.28432
C         46.52478        47.91568         0.15627
C         47.74972        50.04371         0.43780
C         46.50247        50.74554         0.39634
C         47.69272        52.84277         0.81809
C         46.49471        52.15994         0.59802
C         47.62713        54.33967         1.02288
C         46.37654        55.06460         0.57632
C         47.66494        57.19082         0.43895
C         46.40097        56.44102         0.37710
C         47.66107        58.63031         0.45488
C         46.45557        59.33875         0.28857
C         47.67353        61.45036         0.55527
C         46.44699        60.75979         0.39531
C         48.76217        37.91797         0.51697
C         50.12447        39.98100         0.08008
C         48.89936        39.29599         0.25523
C         50.23632        41.40343         0.01870
C         49.00432        42.19721         0.02346
C         50.27506        44.30392        -0.32956
C         49.03324        43.57044         0.05548
C         50.27804        45.76477         0.04883
C         49.02375        46.48644         0.09943
C         50.21763        48.62413         0.31563
C         48.99959        47.91294         0.22550
C         50.21594        50.01234         0.54081
C         48.97910        50.74929         0.62269
C         50.25651        52.82667         0.98892
C         48.96866        52.16209         0.85723
C         50.46983        54.22947         1.39573
C         48.71264        55.05667         0.21466
C         50.13527        57.18046         0.64972
C         48.87631        56.51068         0.52796
C         50.13698        58.61046         0.63066
C         48.90270        59.32686         0.57893
C         50.15563        61.45173         0.61012
C         48.90688        60.76356         0.59016
C         51.46012        42.11046         0.05213
C         52.71765        44.26261         0.10990
C         51.53255        43.53511         0.00568
C         52.73964        45.70043         0.10941
C         51.48086        46.42667         0.11165
C         52.71227        48.54113         0.68823
C         51.51726        47.92928        -0.03193
C         52.73117        50.04085         0.49824
C         51.46811        50.72167         0.53997
C         52.67488        52.85195         0.30849
C         51.42736        52.13029         0.60685
C         52.64535        54.33045         0.27364
C         51.43231        55.02847         0.75102
C         52.58615        57.19925         0.45693
C         51.38290        56.46950         0.67042
C         52.59069        58.59715         0.53435
C         51.37742        59.31703         0.63730
C         52.61967        61.45675         0.44688
C         51.37903        60.76540         0.60022
C         53.94382        46.42043         0.14233
C         55.16962        48.56322         0.17993
C         53.99555        47.84265         0.28481
C         55.21682        50.00441         0.32096
C         53.94985        50.72530         0.46522
C         55.15801        52.88615         0.34520
C         53.97258        52.15999         0.41497
C         55.16209        54.31622         0.22104
C         53.91566        55.07854         0.59770
C         55.11903        57.20556         0.06929
C         53.81632        56.45949        -0.04168
C         55.11646        58.60063         0.18305
C         53.90171        59.31857         0.73117
C         55.06630        61.45976         0.17747
C         53.85239        60.78860         0.38596
C         56.39699        50.70767         0.22075
C         57.60745        52.93359        -0.14758
C         56.48020        52.18301         0.52029
C         57.54423        54.27242        -0.37695
C         56.31612        55.01766        -0.10973
C         57.52923        57.18750        -0.34957
C         56.31414        56.47501        -0.15497
C         57.52647        58.61393        -0.26876
C         56.31976        59.31910         0.01355
C         57.51575        61.45836        -0.13894
C         56.31132        60.76880         0.04441
C         58.72623        55.00934        -0.97268
C         59.91596        57.20715        -0.83568
C         58.74816        56.49498        -0.67058
C         59.95192        58.63628        -0.71227
C         58.74128        59.33914        -0.44893
C         59.96354        61.46065        -0.53715
C         58.74066        60.76884        -0.36645
C         61.14875        59.36774        -0.87513
C         61.14458        60.76173        -0.78341
O         45.79743        40.67501        -2.05101
O         32.93388        57.68430         1.62201
O         49.03882        54.59997        -0.87481
O         42.26510        43.94182        -2.23727
O         41.73325        47.36844        -2.30720
O         36.16802        52.51887         0.84247
O         44.07772        38.10620        -1.45177
O         44.41506        45.88919         1.11965
O         44.30503        54.90644         1.91201
O         37.75346        58.22175        -1.64589
O         37.78550        50.07876        -2.73667
H         36.99171        49.55839        -3.00588
O         53.92578        55.22505         2.04239
H         54.67970        55.80330         2.28459
O         56.78630        52.26040         1.97381
H         56.03467        51.84415         2.44744
O         37.65332        52.99485        -2.45162
H         38.52372        53.19087        -2.85605
O         45.37156        58.64961        -1.69884
H         45.42538        59.59233        -1.96544
O         44.50445        36.37775         2.84458
H         45.02474        37.18853         3.06685
O         42.86864        41.76597         0.90001
H         42.13627        41.24936         1.30172
O         47.57551        54.58151         2.46812
H         46.68929        54.27385         2.76604
O         52.51718        48.29550         2.11048
H         53.32198        48.59447         2.58242
O         49.97341        54.72033         2.54134
H         49.23464        54.17898         2.90553
O         54.10382        59.28458         2.19630
H         54.86127        59.87511         2.39723
O         45.96484        38.45764         2.23020
H         46.65740        39.11220         2.49826
O         42.66411        49.96754         1.50791
H         41.83903        49.49677         1.74722
O         51.73922        48.17405        -1.45423
H         51.06106        47.67605        -1.95774
O         44.96548        52.49002         2.32062
H         44.27221        53.10732         2.65587
O         47.56745        44.19088         1.81278
H         46.70489        44.60885         2.02801
O         35.16234        48.55243        -2.56891
H         34.39284        49.12074        -2.78155
O         31.49596        59.65253        -1.14616
H         30.67987        60.17819        -1.28321
O         37.74788        62.73233        -0.00675
H         37.71967        62.44345        -0.94192
O         47.61329        40.39349         1.90677
H         48.39766        40.95349         2.09938
O         35.42674        54.42355        -2.14425
H         35.25987        55.36119        -2.40319
O         44.28066        34.58236        -0.32725
H         43.62298        33.95079        -0.68520
O         53.62353        56.29173        -1.47472
H         53.01357        55.53576        -1.63146
O         58.69632        54.84800        -2.40824
H         57.86104        55.23965        -2.73787
O         44.11861        50.83130        -1.73194
H         44.95610        51.27398        -1.98307
O         35.06401        57.38766        -2.13760
H         35.84249        57.87580        -2.49364
O         36.49524        55.04876         1.35660
H         36.46420        54.10454         1.64716
O         52.58593        53.63988        -1.00324
O         50.22394        44.33641        -1.81532
H         50.30367        43.40859        -2.12645
H         29.42432        56.51381         0.41597
H         28.21591        58.56792         1.01343
H         30.38303        62.19644         1.88796
H         28.25048        60.95111         1.67091
H         31.90992        52.34176        -0.30689
H         30.67337        54.40387        -0.09931
H         32.87087        62.23703         1.67910
H         34.48946        48.03812        -0.64147
H         33.20389        50.15196        -0.51264
H         35.29142        62.33403         1.50135
H         36.89977        43.83766        -0.17863
H         35.70163        45.93078        -0.54376
H         37.82250        61.93260         1.88292
H         39.49253        39.44842         0.01585
H         38.15577        41.61205        -0.11554
H         40.31535        62.45186         1.10961
H         41.56778        35.41689         1.23774
H         40.54846        37.50390         0.13164
H         42.73089        62.48878         0.78256
H         45.00861        32.35068         2.87954
H         42.84956        33.25854         2.06261
H         45.18153        62.53445         0.53976
H         47.16940        33.42726         2.21689
H         48.39086        35.36066         1.25911
H         47.66552        62.54890         0.61500
H         49.67581        37.30263         0.57525
H         51.04902        39.38516         0.01552
H         50.15513        62.55196         0.57907
H         52.39711        41.54431         0.17433
H         53.67366        43.72753         0.22582
H         52.59818        62.54961         0.31033
H         54.89398        45.87029         0.05111
H         56.10914        48.03784        -0.05332
H         55.06141        62.55518         0.06373
H         57.34043        50.15795         0.07697
H         58.54640        52.39071        -0.33907
H         57.51791        62.55876        -0.12105
H         59.68043        54.53820        -0.62516
H         60.84527        56.67748        -1.09455
H         59.97535        62.55838        -0.47494
H         62.08701        58.83205        -1.07883
H         62.08508        61.31572        -0.91318
