         344
 CSIRO Nanostructure Databank - Neutral Graphene Oxide Data Set
C          1.32254         2.02494         0.26962
C          1.31207         3.40701         0.09434
C          2.52543         1.34346         0.47212
C          2.51424         4.14152         0.07354
C          1.32023         6.36912        -0.04909
C          1.33583         7.78161         0.00340
C          2.50871         5.61615         0.06551
C          2.46536         8.48531         0.37592
C          1.45805        10.63990         1.25589
C          1.53361        11.97122         1.47788
C          2.48221         9.99612         0.34939
C          2.65674        12.75476         0.99084
C          1.57328        14.98748         1.68024
C          1.68131        16.32810         1.84831
C          2.56135        14.22875         0.89652
C          2.81928        17.08027         1.35684
C          2.89695        18.50544         1.63083
C          3.74139         2.03858         0.45346
C          3.73452         3.42784         0.22174
C          5.01983         1.26649         0.71694
C          5.01908         4.12822         0.03550
C          3.71438         6.31308         0.30354
C          3.68479         7.73443         0.66092
C          4.99659         5.66224         0.07807
C          5.01624         8.48814         0.73426
C          3.83873        10.65244         0.54842
C          3.82503        12.10459         0.59564
C          5.02662         9.96055         0.54953
C          5.07382        12.82750         0.40330
C          3.80647        14.99787         0.42531
C          3.87373        16.43640         0.74620
C          5.07708        14.24490         0.30748
C          5.00788        17.24041         0.15507
C          4.03531        19.21537         1.39674
C          5.20576        18.58947         0.82925
C          6.30414         2.04334         0.51118
C          6.28502         3.44712         0.31101
C          7.51737         1.36636         0.49559
C          7.50114         4.18385         0.23573
C          6.26674         6.37371         0.32560
C          6.25443         7.73983         0.50430
C          7.50755         5.61995         0.23015
C          7.54886         8.45775         0.79195
C          6.31027        10.65758         0.50526
C          6.30023        12.11363         0.39147
C          7.49842         9.96083         0.58575
C          7.53313        12.83591         0.36471
C          6.30260        14.95347         0.24696
C          6.30579        16.43294         0.02324
C          7.52006        14.25915         0.31553
C          7.60640        17.16731         0.08548
C          6.40552        19.25708         0.77481
C          7.63605        18.61943         0.38436
C          8.75023         2.05272         0.27718
C          8.74373         3.48830         0.18944
C          9.96513         1.36077         0.14620
C          9.96218         4.19936        -0.00557
C          8.73376         6.30640         0.15705
C          8.68829         7.80321        -0.01739
C          9.95561         5.62707        -0.04437
C         10.03059         8.47814         0.30302
C          8.82852        10.67877         0.71319
C          8.78286        12.14097         0.37240
C          9.93731         9.96732        -0.08680
C         10.02099        12.81228         0.22225
C          8.81674        14.97117         0.62091
C          8.86345        16.42494         0.26715
C         10.05630        14.22663         0.21418
C         10.07429        17.09600         0.18810
C          8.85059        19.26526         0.39507
C         10.09595        18.56438         0.18221
C         11.18005         2.04482        -0.11483
C         11.18564         3.48427        -0.19791
C         12.38730         1.33946        -0.28613
C         12.38930         4.18027        -0.47683
C         11.18528         6.35087        -0.31244
C         11.20753         7.75964        -0.31863
C         12.40014         5.62421        -0.53757
C         12.40920         8.48049        -0.51638
C         11.27408        10.66944        -0.00725
C         11.26518        12.06166         0.07281
C         12.45496         9.91681        -0.36418
C         12.48817        12.79845        -0.10960
C         11.27443        14.94145         0.04555
C         11.29759        16.35765         0.09565
C         12.49052        14.17946        -0.17095
C         12.61469        17.09319         0.11718
C         11.28598        19.25091         0.05481
C         12.54317        18.57785        -0.17264
C         13.59762         2.01383        -0.55506
C         13.60009         3.45199        -0.67269
C         14.81274         1.30037        -0.67960
C         14.81255         4.13341        -0.95755
C         13.60779         6.32492        -0.75345
C         13.62614         7.76065        -0.76152
C         14.83486         5.58514        -1.00361
C         14.83733         8.47596        -0.97034
C         13.68035        10.58662        -0.55370
C         13.74746        12.03053        -0.25624
C         14.86134         9.88437        -0.93758
C         15.02168        12.76632        -0.59889
C         13.67484        14.89618        -0.69322
C         13.66893        16.40413        -0.72270
C         14.96490        14.22179        -0.83657
C         14.94726        17.09942        -0.89596
C         13.66611        19.25851        -0.54404
C         14.89100        18.58677        -1.11326
C         16.02805         1.96926        -0.90405
C         16.02533         3.40193        -1.06891
C         17.26516         1.27372        -0.93706
C         17.25374         4.06819        -1.33805
C         16.00533         6.25789        -1.30929
C         16.14866         7.72848        -0.99819
C         17.21514         5.50046        -1.66283
C         17.21541         8.40875        -1.86213
C         16.08047        10.61786        -1.30513
C         16.10840        12.01675        -1.24503
C         17.27880         9.89778        -1.62345
C         17.22721        12.78544        -1.76015
C         16.11360        14.93512        -1.13909
C         16.11450        16.38914        -1.13515
C         17.34030        14.23738        -1.47963
C         17.37238        17.08272        -1.27648
C         16.21812        19.23859        -0.88262
C         17.39126        18.52026        -1.13199
C         18.48604         1.94916        -1.07744
C         18.48224         3.38180        -1.31657
C         19.71453         1.25568        -0.89740
C         19.71859         4.10708        -1.35312
C         18.55740         6.24927        -1.79900
C         18.55996         7.72617        -1.67457
C         19.76889         5.49129        -1.47528
C         19.72781         8.41040        -1.48962
C         18.50917        10.55377        -1.70721
C         18.55991        11.98996        -1.96073
C         19.75392         9.86560        -1.50594
C         19.79400        12.72543        -1.77357
C         18.52935        14.91520        -1.65566
C         18.57240        16.36234        -1.51215
C         19.78772        14.18663        -2.14482
C         19.78506        17.07463        -1.69521
C         18.64352        19.19268        -1.28481
C         19.79441        18.49090        -1.60760
C         20.94729         1.92415        -0.85242
C         21.04012         3.38376        -1.23737
C         22.13900         1.28580        -0.50957
C         21.99191         4.11695        -0.29019
C         20.98743         6.23187        -1.15419
C         21.06172         7.69380        -1.54238
C         22.05437         5.59203        -0.60216
C         22.17785         8.46405        -0.86811
C         20.93494        10.59053        -1.28303
C         20.94063        12.04553        -1.34640
C         22.15872         9.89770        -0.92131
C         22.11533        12.78563        -0.99769
C         21.03979        14.90563        -1.72310
C         21.08514        16.37255        -2.05656
C         22.12429        14.23446        -1.14258
C         22.25659        17.10079        -1.44446
C         21.05957        19.22913        -1.98488
C         22.26286        18.50242        -1.44018
C         23.37036         2.01680        -0.35215
C         23.34587         3.44051        -0.31760
C         24.59120         1.33675        -0.19329
C         24.54173         4.19350        -0.10850
C         23.18701         6.33610         0.04514
C         23.28470         7.78883        -0.36753
C         24.49840         5.60019        -0.00417
C         24.48998         8.50390        -0.08579
C         23.29528        10.63144        -0.52837
C         23.28343        12.09437        -0.52927
C         24.49222         9.92862        -0.16595
C         24.38199        12.80008        -0.04316
C         23.28720        14.97004        -0.73153
C         23.36537        16.38423        -0.91758
C         24.30457        14.29596         0.15581
C         24.53772        17.12664        -0.55654
C         23.37142        19.20910        -0.95519
C         24.53293        18.52412        -0.55648
C         25.82093         2.04495        -0.05181
C         25.79193         3.48607         0.00548
C         27.03618         1.35782         0.02600
C         27.01060         4.20329         0.24470
C         25.67368         6.34531         0.55592
C         25.71089         7.81647         0.19453
C         26.98811         5.62808         0.39601
C         26.90280         8.52762         0.31623
C         25.67574        10.63270         0.17654
C         25.56771        12.08413         0.56060
C         26.89382         9.95959         0.36842
C         26.89564        12.82440         0.28528
C         25.68371        14.94127         0.03898
C         25.78746        16.39411        -0.28921
C         26.82195        14.27762         0.80081
C         27.02756        17.11488         0.04975
C         25.73085        19.33247        -0.11900
C         27.00750        18.54297         0.10863
C         28.33961         2.08115        -0.11080
C         28.24662         3.52488         0.31102
C         29.51570         1.36765         0.49921
C         29.42015         4.21993         0.69819
C         28.16729         6.32857         0.59749
C         28.23543         7.81135         0.33501
C         29.39710         5.64097         0.83558
C         29.20349         8.51477         1.28453
C         28.10073        10.70294         0.73044
C         28.09429        12.07512         0.82405
C         29.42746         9.97820         0.85601
C         29.27145        12.82624         1.21484
C         28.15085        14.98193         0.65231
C         28.19007        16.36787         0.38709
C         29.31344        14.25646         1.06500
C         29.48242        17.06196         0.50158
C         28.12996        19.26020         0.46955
C         29.44569        18.63651         0.55558
C         30.59266         2.04476         0.94925
C         30.62394         3.49706         0.98115
C         31.76753         4.20577         1.35913
C         30.57381         6.34301         1.25854
C         30.51273         7.77919         1.50066
C         31.74475         5.60061         1.48832
C         31.51801         8.50335         2.09175
C         30.40759        10.67892         1.77425
C         30.39306        12.13554         1.75229
C         31.41411         9.92191         2.31934
C         31.51901        12.87894         2.16952
C         30.51730        14.96477         1.39493
C         30.60959        16.39594         1.16553
C         31.58370        14.25124         1.98101
C         31.70047        17.15931         1.55900
C         30.54864        19.29472         1.24790
C         31.65885        18.58362         1.61181
O         29.83314        17.88697        -0.63686
O          5.04389         4.91882        -1.20230
O          6.98600        16.79688        -1.23485
O         17.71688        12.41408        -3.09188
O         14.74012        12.36339         0.79543
O          2.72912        14.65781        -0.50329
O          4.32413         8.07560         1.97936
O         26.02910        15.30725        -1.31829
O         13.24387        15.67258        -1.90183
O         17.82263         5.78970        -2.97764
O         16.78677         8.24686        -3.23753
H         17.48282         8.60863        -3.82403
O         28.51397         8.52636         2.56670
H         29.11189         8.94863         3.22015
O         16.67052         7.77786         0.37106
H         15.95717         7.49031         0.97960
O         14.68429        18.73914        -2.58711
H         15.38152        18.21306        -3.03554
O          8.39767         7.97753        -1.42628
H          7.59675         7.45139        -1.63641
O         25.35584        12.04491         2.01776
H         24.55326        11.50538         2.18063
O          9.19332        10.65183         2.13638
H          8.55218        11.21666         2.61740
O         21.24555        16.48640        -3.52065
H         20.68020        15.77839        -3.92203
O         23.87113        14.53954         1.54930
H         22.97101        14.16148         1.64410
O         25.39666        20.05557         1.08364
H         25.13867        19.40549         1.76900
O         22.81080         6.37967         1.48713
H         23.66003         6.47880         1.99311
O         13.12813        16.98383         1.49188
H         12.54933        17.52531         2.06899
O          4.55657        17.56298        -1.19248
H          5.36414        17.56008        -1.76138
O          9.56687        10.12346        -1.47611
H         10.07259         9.47749        -2.01195
O         28.60965         2.09689        -1.57817
H         27.84554         2.54271        -2.00310
O         27.10111        12.82839        -1.14272
H         26.86089        13.70477        -1.52399
O         26.56134        14.33955         2.21532
H         25.73540        13.82933         2.40096
O          7.78110         8.21838         2.21319
H          6.93781         8.39159         2.68414
O          2.07891        10.34866        -1.01854
H          2.07237        11.32865        -1.08116
O         30.07302        10.06281        -0.43765
H         29.56933         9.49480        -1.06784
O         28.75829         7.89124        -1.03024
H         28.11438         7.45272        -1.62529
O         21.43450         7.69549        -2.96520
H         20.80336         7.10982        -3.43578
O         21.66852         3.43972        -2.55141
H         21.06299         3.01312        -3.19300
O          5.03704         0.06295        -0.06525
H          5.05964         0.31537        -1.01099
O         19.70678        14.24809        -3.62042
H         18.92905        13.68574        -3.86731
O         21.14389        19.28779        -3.41932
H         21.22118        18.35441        -3.74140
O         10.34020         8.33933         1.70151
H          9.68757         8.85816         2.23121
O         21.49833         3.98515         1.06917
H         21.89701         4.73316         1.58330
O          8.84910        14.96205         2.12899
H          9.76113        15.21377         2.39274
O         25.46195         6.37194         2.04433
H         26.21032         6.88108         2.42973
H          0.37376         1.47060         0.27399
H          0.34781         3.91976        -0.02127
H          2.52915         0.25611         0.62974
H          0.36615         5.86803        -0.25857
H          0.41300         8.33166        -0.22951
H          0.59899        10.05336         1.61197
H          0.73665        12.47850         2.04003
H          0.74779        14.44715         2.16484
H          0.91716        16.86983         2.42524
H          2.02423        18.99293         2.08925
H          4.99395         0.93131         1.79247
H          4.09854        20.27479         1.68820
H          7.52309         0.27080         0.59107
H          6.45936        20.29612         1.13773
H          9.97500         0.26330         0.22147
H          8.88949        20.34789         0.59096
H         12.38902         0.24250        -0.20356
H         11.27245        20.35162         0.02386
H         14.80819         0.20617        -0.56631
H         13.60039        20.34904        -0.69033
H         17.26839         0.18517        -0.77641
H         16.26814        20.33514        -0.80083
H         19.68021         0.18032        -0.66251
H         18.67019        20.29094        -1.22464
H         22.14689         0.19873        -0.33571
H         21.02821        20.28103        -1.60568
H         24.60790         0.23722        -0.21883
H         23.35744        20.30833        -0.94156
H         27.03640         0.25895        -0.03867
H         25.93729        20.11327        -0.89706
H         29.51333         0.26740         0.48541
H         28.03602        20.33455         0.68856
H         31.47228         1.50270         1.32922
H         32.69603         3.65867         1.57798
H         32.66409         6.11331         1.80347
H         32.45557         8.01564         2.39587
H         32.22190        10.39711         2.89527
H         32.38858        12.36230         2.59799
H         32.50127        14.77749         2.27538
H         32.58930        16.67091         1.98100
H         30.46044        20.36366         1.49060
H         32.50856        19.10507         2.07528
