         576
 CSIRO Nanostructure Databank - Neutral Graphene Oxide Data Set
C          5.73957        19.03865        -0.65038
C          5.93762        20.42752        -0.75556
C          4.74158        21.23703        -0.66875
C          5.98914        23.33246        -0.56223
C          4.75647        22.60305        -0.64516
C          5.99427        24.72864        -0.44980
C          8.37443        14.62567        -0.76338
C          8.33135        16.09210        -0.33455
C          6.96234        16.78770        -0.40980
C          8.60304        19.12205        -1.17367
C          6.72970        18.03049        -0.94327
C          8.48556        20.49407        -0.84047
C          7.20973        21.15440        -0.78591
C          8.43422        23.24610        -0.26543
C          7.22007        22.56613        -0.57116
C          8.40570        24.68381         0.03589
C          7.18122        25.46969        -0.21471
C          8.41032        27.61975         0.02385
C          7.20401        26.86816        -0.05515
C          8.44077        28.99650         0.26746
C         10.96413        10.37776        -1.10971
C         10.86467        11.78323        -0.85493
C          9.65358        12.48509        -0.97953
C         10.82264        14.59526        -0.50292
C          9.57129        13.90470        -0.77192
C         10.78208        16.07413        -0.42393
C          9.56950        16.79480        -1.00754
C         10.90981        18.95891        -0.60763
C          9.69781        18.30673        -0.81414
C         11.02273        20.45460        -0.74222
C          9.70286        21.18526        -0.54105
C         10.91932        23.25516         0.23902
C          9.67109        22.54810        -0.25355
C         10.96835        24.71227        -0.17777
C          9.76391        25.46640         0.04836
C         10.95498        27.67202        -0.21152
C          9.65747        26.90213        -0.45486
C         10.95230        29.01462         0.50219
C          9.64005        29.76562         0.39786
C         10.85810        31.90450         0.81403
C          9.65111        31.14674         0.57041
C         10.85709        33.30912         0.77998
C         13.66928         6.25870        -1.68700
C         13.50193         7.61416        -1.21338
C         12.29013         8.29072        -1.31160
C         13.35147        10.36588        -0.49315
C         12.16683         9.67479        -0.96137
C         13.29645        11.80046        -0.34433
C         12.07549        12.49101        -0.49123
C         13.24026        14.65482         0.19056
C         12.01496        13.92003        -0.32523
C         13.39753        16.06470        -0.37744
C         12.09205        16.80541        -0.35284
C         13.29404        18.93222         1.02537
C         12.10319        18.17638        -0.90388
C         13.23774        20.38604         0.59937
C         12.20373        21.06849         0.03443
C         13.30323        23.29621         0.67800
C         12.25819        22.58171        -0.14416
C         13.16237        24.77574         0.89958
C         12.32133        25.40400        -0.25799
C         13.43769        27.63071         0.41408
C         12.24009        26.91875        -0.09994
C         13.47284        29.10586         0.23867
C         12.15830        29.87204         0.03417
C         13.23088        31.64590         1.46897
C         12.11126        31.15636         0.85054
C         13.21416        33.75856         1.51084
C         12.02661        34.15905         0.81640
C         13.35961        36.02853        -0.04635
C         12.12536        35.35793         0.07831
C         13.46407        37.26863        -0.76240
C         16.04738         6.25434        -1.08381
C         14.87655         5.62207        -1.65249
C         15.87151         7.56720        -0.53564
C         14.65333         8.27041        -0.63266
C         15.73121        10.36826         0.23978
C         14.53269         9.64706        -0.24306
C         15.80333        11.83900         0.06361
C         14.52601        12.55037        -0.20213
C         15.76728        14.65266         0.02739
C         14.52478        13.91425        -0.04285
C         15.77733        16.07839         0.22628
C         14.56603        16.80454         0.28381
C         15.78470        18.90865         0.71110
C         14.53719        18.16777         0.67161
C         15.78027        20.37708         0.79495
C         14.49298        21.08206         1.03368
C         15.78166        23.28197         0.89063
C         14.50980        22.57918         1.06620
C         15.78674        24.73676         1.03469
C         14.49591        25.49359         1.07008
C         15.83109        27.61340         1.07034
C         14.56188        26.95129         0.82288
C         15.75761        29.05317         1.50006
C         14.68259        29.80595         0.75443
C         15.72880        31.97103         1.34212
C         14.58239        31.21574         1.20333
C         15.72924        33.45478         1.57416
C         14.48871        34.26297         1.28764
C         15.78757        36.16845         0.39163
C         14.56532        35.47412         0.51548
C         15.84541        37.44199        -0.22762
C         14.65088        37.94877        -0.84667
C         18.47290         6.22171        -0.45917
C         17.29860         5.62262        -1.05144
C         18.33805         7.51492         0.08297
C         17.03642         8.16063         0.12891
C         18.29013        10.38501         0.55006
C         17.01089         9.63414         0.46406
C         18.35607        11.77115         0.27973
C         17.12244        12.48129        -0.34315
C         18.09734        14.81837        -0.47409
C         16.99054        13.98344        -0.16136
C         18.26221        16.13470        -0.16520
C         17.08523        16.73604         0.62502
C         18.21352        18.96954         0.18211
C         16.98524        18.23594         0.60666
C         18.19953        20.45579         0.35641
C         16.94851        21.11703         0.66023
C         18.20734        23.27394         0.56280
C         16.97570        22.57895         0.67725
C         18.25366        24.72942         0.38440
C         16.97963        25.50311         0.58782
C         18.32070        27.59119         0.90979
C         17.03924        26.94245         0.91931
C         18.35282        29.04628         1.21906
C         17.08039        29.80924         1.43665
C         18.17472        31.97569         0.88567
C         17.02733        31.29449         1.19857
C         18.14173        33.46436         0.61524
C         17.03097        34.18215         1.38602
C         18.26369        36.37885         0.96232
C         16.92440        35.71860         1.27640
C         18.25511        37.71411         0.32376
C         17.04468        38.20259        -0.21652
C         20.85332         6.10353         0.30835
C         19.73245         5.56098        -0.39045
C         20.68873         7.38470         1.05066
C         19.40379         8.15911         0.87196
C         20.63030        10.32576         1.28877
C         19.43971         9.64552         0.94089
C         20.68532        11.71603         1.11121
C         19.61423        12.39755         0.50340
C         20.78430        14.60982         0.73948
C         19.91464        13.75685         0.09814
C         20.86127        16.01241         0.32210
C         19.70866        16.51103        -0.56325
C         20.66678        19.00300         0.36015
C         19.49566        18.47108         0.81782
C         20.60192        20.34221        -0.33787
C         19.37843        21.10943         0.14615
C         20.73765        23.28926         0.19906
C         19.46374        22.54088         0.45713
C         20.71715        24.77078         0.10545
C         19.51948        25.48425         0.39594
C         20.87751        27.56819         0.62149
C         19.50127        26.89424         0.58324
C         20.84214        29.10213         0.49438
C         19.57911        29.82287         0.83526
C         20.61768        31.99223        -0.02542
C         19.39024        31.24848         0.41212
C         20.62310        33.46231         0.19745
C         19.52171        34.11945         0.66159
C         20.76258        36.33745         0.42528
C         19.55565        35.59752         0.83738
C         20.73084        37.70760         0.25315
C         19.47647        38.37938         0.13152
C         23.23156         5.96862         1.21134
C         22.07383         5.45904         0.38285
C         23.22743         7.48540         1.31489
C         21.92199         8.12840         1.49357
C         23.15165        10.40382         1.87419
C         21.85318         9.62245         1.76280
C         23.16701        11.83797         1.55101
C         21.81722        12.47589         1.77673
C         23.15343        14.77702         1.64130
C         21.83479        13.99874         1.58603
C         23.10722        16.32453         1.47993
C         21.91311        16.81699         0.66701
C         23.09966        19.13085         0.84054
C         21.97736        18.27110         0.22044
C         23.09871        20.50149         0.15863
C         21.90383        21.11036        -0.17767
C         23.11222        23.31054        -0.55785
C         21.81324        22.55640        -0.60365
C         23.06151        24.71099        -0.67681
C         21.87506        25.42706        -0.31616
C         23.00339        27.66876        -0.86434
C         21.81768        26.90647        -0.38201
C         23.07717        29.12208        -0.59320
C         21.95236        29.83975        -0.19086
C         23.09019        32.02826        -0.49579
C         21.91539        31.27326        -0.20839
C         23.11300        33.42253        -0.37705
C         21.84315        34.23318        -0.28346
C         23.27154        36.30138         0.13327
C         22.02616        35.53140         0.50196
C         23.28893        37.74785         0.24067
C         21.99362        38.51133         0.00933
C         25.73628         6.09931         0.84273
C         24.53966         5.45554         0.66360
C         25.80086         7.41699         1.53491
C         24.41478         8.16011         1.77303
C         25.68120        10.42585         1.46768
C         24.46578         9.66788         1.88241
C         25.64399        11.80941         1.30025
C         24.37127        12.55452         1.44108
C         25.56726        14.68456         0.89342
C         24.37738        13.98671         1.39874
C         25.58463        16.18124         0.73120
C         24.37454        16.99729         0.98801
C         25.61679        19.04200         0.36400
C         24.39311        18.34746         0.74191
C         25.58259        20.46603         0.10692
C         24.34481        21.19394         0.00217
C         25.54689        23.30156        -0.48637
C         24.34891        22.59406        -0.39994
C         25.57306        24.65643        -1.05995
C         24.24998        25.42861        -1.18316
C         25.55158        27.65526        -1.08355
C         24.23731        26.96536        -1.44870
C         25.58343        29.02865        -0.94782
C         24.30704        29.79859        -1.00983
C         25.64457        31.93206        -0.66904
C         24.33618        31.30720        -0.89930
C         25.66881        33.38026        -0.66101
C         24.34124        34.18425        -0.61483
C         25.73075        36.25213         0.00489
C         24.41332        35.61542        -0.20290
C         25.76150        37.72655         0.46119
C         24.47330        38.42762         0.32105
C         28.19071         6.14163         0.51317
C         26.95085         5.54419         0.31865
C         28.27436         7.38898         1.37582
C         26.99245         8.21384         1.38723
C         28.25084        10.44942         1.29591
C         26.97593         9.67737         1.55530
C         28.07524        11.75332         0.52773
C         26.85477        12.56217         0.95164
C         28.01427        14.71340         0.37411
C         26.84673        13.93730         0.79179
C         28.04717        16.08675         0.30329
C         26.91270        16.90930         0.85740
C         28.03870        19.01998         0.00227
C         26.83279        18.34036         0.32644
C         28.02278        20.44279        -0.16684
C         26.80565        21.15509        -0.07510
C         27.99029        23.24887        -0.82504
C         26.82993        22.67112        -0.01612
C         27.99800        24.76711        -0.78364
C         26.83679        25.43666        -0.98839
C         28.08473        27.65793        -1.05363
C         26.82493        26.89934        -1.41224
C         28.05592        29.05693        -0.96886
C         26.82872        29.76370        -0.84310
C         28.10182        31.89158        -0.45818
C         26.85063        31.19655        -0.64853
C         28.13069        33.32233        -0.28963
C         26.92256        34.06275        -0.35758
C         28.19688        36.07219        -0.49543
C         26.94804        35.46699        -0.34051
C         28.22864        38.19160         0.16327
C         27.01119        38.53623         0.68468
C         30.64736         6.14333         0.17784
C         29.37579         5.52501         0.05860
C         30.71839         7.47596         0.60014
C         29.54472         8.18286         1.12634
C         30.73002        10.34831         0.47606
C         29.55478         9.70072         1.11474
C         30.66030        11.82042         0.25531
C         29.36916        12.55925         0.44375
C         30.40474        14.67039        -0.64592
C         29.21386        13.95692        -0.09189
C         30.41904        16.19324        -0.73141
C         29.37585        16.82571         0.27108
C         30.48033        18.98763        -0.22991
C         29.28385        18.30856        -0.05142
C         30.49155        20.42045        -0.36209
C         29.26906        21.14570        -0.34934
C         30.49099        23.26088        -0.42761
C         29.28942        22.56587        -0.47398
C         30.52627        24.73722        -0.36414
C         29.26162        25.51166        -0.57096
C         30.55883        27.59292        -0.97695
C         29.32628        26.95251        -0.93775
C         30.63861        29.06008        -1.14235
C         29.31991        29.81836        -1.05706
C         30.57794        31.82761        -0.28722
C         29.35601        31.20953        -0.57087
C         30.58238        33.22490         0.28969
C         29.35980        34.01046        -0.08979
C         30.64357        36.17426         0.04082
C         29.41534        35.41744        -0.19356
C         30.66527        37.59660         0.35190
C         29.57238        38.45522         0.58909
C         33.08238         6.06076        -0.21482
C         31.86254         5.46844        -0.25097
C         33.27909         7.44067         0.26590
C         31.98382         8.20560         0.65556
C         33.13715        10.28654        -0.18962
C         31.91339         9.66231         0.38025
C         33.11294        11.74350        -0.53645
C         31.79121        12.46696        -0.49268
C         33.02010        14.69787        -0.90957
C         31.71877        13.92456        -0.81770
C         32.96799        16.13657        -0.52292
C         31.78133        16.79433        -0.44968
C         33.01084        18.93130        -0.52834
C         31.77812        18.24361         0.01895
C         32.97687        20.44895        -0.69550
C         31.70961        21.14172        -0.45949
C         32.96925        23.25772        -0.32476
C         31.72645        22.55113        -0.40081
C         33.00456        24.69051        -0.44419
C         31.82048        25.40870        -0.56639
C         33.15700        27.57059        -0.90972
C         31.82072        26.82825        -0.93905
C         33.21061        29.10691        -0.97451
C         31.86752        29.77780        -0.74137
C         33.08389        31.83333        -0.05938
C         31.83278        31.11680        -0.37113
C         33.06344        33.27025         0.02470
C         31.85881        33.99224         0.03762
C         33.12534        36.10174         0.21766
C         31.85351        35.42359         0.09198
C         33.12843        37.52140         0.45143
C         31.96038        38.20358         0.58413
C         34.46113         8.20292        -0.12632
C         35.61996        10.38342        -0.21088
C         34.46123         9.60399        -0.09080
C         35.59699        11.82411        -0.27373
C         34.36546        12.50667        -0.52018
C         35.66814        14.69135        -0.71109
C         34.34204        13.94629        -0.81827
C         35.54335        16.13519        -0.32044
C         34.24004        16.79648         0.04512
C         35.49815        18.95891        -0.41223
C         34.29281        18.27376        -0.28251
C         35.51077        20.43407        -0.80778
C         34.22621        21.16935        -0.50278
C         35.39616        23.24409         0.30210
C         34.19212        22.52711        -0.23870
C         35.46359        24.71087        -0.02239
C         34.28478        25.39062        -0.35860
C         35.43247        27.48970         0.12539
C         34.31218        26.80895        -0.40020
C         35.20240        28.86789         0.48339
C         34.24821        29.68643        -0.05065
C         35.55977        31.83411         0.26724
C         34.28402        31.12822         0.12752
C         35.52251        33.25091         0.16856
C         34.32475        33.96901         0.10365
C         34.31543        35.38910         0.19949
C         36.78439        12.55539        -0.09260
C         38.00613        14.77857         0.11049
C         36.69964        14.01589         0.21578
C         38.01777        16.11996        -0.14361
C         36.73691        16.84634        -0.24627
C         38.01994        19.02206        -0.54487
C         36.73572        18.26740        -0.28391
C         37.88846        20.42476         0.01276
C         36.71240        21.14881        -0.23901
C         37.88817        23.23040         0.27053
C         36.68052        22.51677         0.07116
C         37.90041        24.67018         0.34636
C         36.69139        25.41064         0.20476
C         37.95217        27.54189         0.52643
C         36.68117        26.84098         0.33773
C         38.09283        28.98871         0.40769
C         37.08031        29.88995         0.71246
C         36.84916        31.23283         0.31313
C         39.25969        16.88420        -0.20327
C         40.61889        18.93843        -0.49178
C         39.31464        18.24333        -0.29075
C         40.90676        20.07643         0.19058
C         38.96902        21.11714         0.57831
C         40.39825        23.19359         0.14285
C         39.09004        22.50522         0.45800
C         40.35918        24.63231         0.59764
C         39.15631        25.35060         0.54793
C         39.12391        26.78586         0.61708
C         41.94860        21.11290         0.13583
C         41.70740        22.43410         0.32844
O         25.36907        15.36816        -0.46611
O         17.37617        25.16314        -0.76131
O         19.22676        14.17690        -1.04977
O         30.31029        12.48467         1.54235
O         36.02709        29.36361         1.49614
O         32.91055         7.71849         1.67081
O         22.32240        14.52807         2.85280
O         29.78164        25.29440         0.80347
O         13.01094        18.59150        -1.65975
O         15.19011        25.16589         2.31822
O         15.63668        11.28613         1.40893
O         24.19813        30.63828        -2.20892
O         17.91707        29.42192         2.58281
O         19.67795         7.37334         2.09079
O         30.00005        29.60854        -2.34539
O         33.72747        14.34057        -2.12805
O         12.45998        18.50223         1.80883
O         25.13171         7.45927         2.84228
O         29.38824        14.08960        -1.54624
O          7.62798        18.49078        -1.94792
O         25.00889        33.93336        -1.88343
O         21.80064        27.43094        -1.74208
O         16.65372        33.74078         2.71037
O         32.99091        10.69965        -1.59979
O         28.19620        37.36978        -0.98509
O         20.48998        22.81624         1.54337
O         11.82842        27.59086        -1.37160
O         29.92227         8.96562         2.31735
O         23.87486        10.14071         3.13276
O         11.25429        16.64072         0.82044
O         27.78757        10.34315         2.65093
O         24.84175        24.74244        -2.32752
O         25.76782        36.64162         1.45546
O         39.97530        20.39188         1.20449
O         19.97797        16.92585        -1.68026
O          9.05195        25.11934         1.28675
O         31.51936        12.92236        -1.85394
O         19.59335        31.52345        -1.02815
O         16.81059         8.66054         1.51836
O         19.11852        36.17556         2.12709
O         14.39858        21.74021         2.34720
O         29.79948        16.70337         1.62001
O         21.70892         8.68995         2.85228
O         21.45697        27.26163         1.91092
O         32.91865        19.52178        -1.86038
O         14.55631        29.56321        -0.67766
O         32.64676        27.03692        -2.17026
O         13.07857        32.68617         2.40501
O         34.12047        16.63530         1.49386
H         33.33643        17.18689         1.77260
O         27.81932        11.31165        -0.84359
H         27.85181        12.09880        -1.43137
O         38.05104        19.22820        -1.99898
H         37.90820        18.35922        -2.43006
O         40.36733        23.31044        -1.34354
H         39.53232        23.76724        -1.58572
O         18.23370        18.70460        -1.25144
H         18.97672        19.22429        -1.66309
O         15.32432        29.06042         2.88509
H         16.12610        28.89547         3.43260
O         17.23861        12.22990        -1.77611
H         17.95981        12.81025        -2.11080
O         21.52185        12.22047         3.18220
H         22.14238        12.76327         3.71869
O         13.10143        14.79184         1.62748
H         12.99642        13.89796         2.01449
O         21.96221        39.71386         0.78560
H         21.85371        39.47203         1.72789
O         19.41726        17.60190         1.85405
H         20.30384        17.46541         2.24723
O         16.54514        36.24489         2.57369
H         16.53526        35.48334         3.20331
O         11.34449        20.62653        -2.17473
H         12.11532        20.02010        -2.34767
O         31.93463        18.21615         1.47032
H         31.13448        17.67807         1.79978
O         27.71344        22.87220        -2.20296
H         28.32365        23.35813        -2.79565
O         26.86217        26.82428        -2.87915
H         25.93500        26.68130        -3.19584
O         36.17302        14.14780         1.56769
H         36.84068        13.80252         2.19599
O         30.52226        33.04038         1.75719
H         30.54018        33.93237         2.16501
O         27.04472        23.04053         1.37360
H         26.36755        22.59202         1.92244
O         33.59199        29.45195        -2.33282
H         33.07225        28.86466        -2.92878
O          9.47588        26.77712        -1.89219
H         10.30027        27.10669        -2.32228
O         17.73668        33.62031        -0.78374
H         18.30925        33.00753        -1.30980
O         24.13146        27.12136        -2.88619
H         23.17646        27.03840        -3.11606
O         13.76530        15.92095        -1.76863
H         13.83528        16.83127        -2.14388
O         22.92456        16.87983         2.82341
H         22.46459        16.19093         3.36438
O         36.27625        14.65601        -2.02787
H         35.54273        14.73838        -2.68077
O         21.33304        22.63270        -1.97686
H         22.00613        22.22990        -2.56410
O         28.37197         6.89626         2.74211
H         28.68099         7.65318         3.29239
O         22.79871        19.44685         2.21317
H         22.93667        18.62974         2.75439
O         10.84147        23.12027         1.68649
H         10.18459        23.78524         2.00843
O         23.08717         5.45736         2.57440
H         23.73634         5.95358         3.12769
O         17.27690        16.30348         2.02841
H         16.46313        16.54205         2.52263
O         13.08064        25.20667        -1.45736
H         12.70509        25.78972        -2.15154
O         20.64172        29.69694         1.83739
H         21.10127        27.92519         2.54793
O         35.60747        20.47201        -2.26332
H         34.77827        20.06449        -2.60768
O         30.02952        16.57762        -2.06131
H         29.50945        15.83035        -2.43827
O         22.28697        18.23237        -1.21149
H         21.63134        17.61090        -1.62984
O         35.21001        23.20396         1.77157
H         34.38924        23.69949         1.98007
O         21.54004        34.63587        -1.65080
H         21.58932        33.84201        -2.22513
O         12.56109        22.84219        -1.53346
H         12.08216        22.16922        -2.08326
O         22.20102        35.12602         1.88814
H         22.17775        35.92657         2.45285
O          8.62108        16.11517         1.08831
H          8.02688        15.48197         1.54083
O         27.21068        17.03377         2.27515
H         28.21461        16.99240         2.34583
O         20.44781        20.15543        -1.78500
H         21.17995        19.54139        -2.04282
O         12.42338        25.07500         2.10968
H         12.94234        24.72376         2.86638
O          9.53711        16.54496        -2.42231
H          8.78160        17.05801        -2.79133
O         11.15995        28.69847         1.90130
H         11.02237        29.51232         2.43103
O         12.00170        30.19632        -1.35354
H         12.89507        30.16820        -1.76262
H          4.73571        18.70311        -0.34292
H          3.77436        20.71227        -0.66563
H          3.81041        23.16355        -0.62840
H          5.03761        25.26874        -0.51913
H          7.42673        14.09188        -0.93749
H          6.25803        16.44754         0.36841
H          6.24410        27.40712        -0.01221
H          7.48104        29.51922         0.41307
H         10.06869         9.83843        -1.45494
H          8.73645        11.92939        -1.22874
H          8.69848        31.69693         0.51356
H          9.90829        33.79512         0.49721
H         12.79401         5.74858        -2.11609
H         11.41044         7.76778        -1.71683
H         11.24512        35.74790        -0.45427
H         12.55567        37.68803        -1.21905
H         14.97336         4.60158        -2.05107
H         14.69677        38.91600        -1.36793
H         17.38932         4.60941        -1.47080
H         17.04790        39.18660        -0.71002
H         19.83696         4.56878        -0.85338
H         19.47349        39.41574        -0.23797
H         22.19740         4.49275        -0.13113
H         21.99158        38.83898        -1.06837
H         24.53751         4.48060         0.15076
H         24.47177        39.52614         0.26067
H         26.89071         4.59579        -0.23750
H         26.97189        39.21209         1.55302
H         29.30685         4.53822        -0.42375
H         29.78177        39.39861         1.11801
H         33.95694         5.53650        -0.62924
H         31.76600         4.44420        -0.64029
H         34.09324        38.03378         0.57582
H         31.98197        39.27838         0.81730
H         35.37247         7.65971        -0.41913
H         36.60023         9.88684        -0.15819
H         36.47037        33.80778         0.22415
H         35.27044        35.92356         0.31322
H         37.74823        12.02636        -0.03581
H         38.95248        14.24182         0.28335
H         39.04040        29.36560        -0.00749
H         37.70717        31.85525         0.01313
H         40.19785        16.31059        -0.13941
H         41.31541        18.52937        -1.23992
H         41.30592        25.18678         0.69588
H         40.08399        27.31585         0.71253
H         42.99870        20.78640         0.04510
H         42.59095        23.09559         0.33452
