         762
 CSIRO Nanostructure Databank - Neutral Graphene Oxide Data Set
C         22.91760        24.52319        -0.56393
C         21.73350        25.23835        -0.64363
C         22.96311        27.33055        -0.42516
C         21.75763        26.63698        -0.60933
C         22.99667        28.78590        -0.45750
C         21.94819        29.53393        -0.92631
C         23.08519        31.68753        -0.59970
C         21.95597        30.96741        -0.90387
C         23.10014        33.13811        -0.54655
C         21.91287        33.88592        -0.91779
C         22.86318        35.93379         0.04642
C         21.77288        35.19722        -0.61221
C         22.77671        37.45667         0.22809
C         21.59235        38.22628        -0.18958
C         22.82118        40.34284        -0.05695
C         21.61035        39.59120        -0.21369
C         22.82786        41.76572         0.22271
C         21.69208        42.36718         0.80720
C         22.99489        44.36981         1.16039
C         21.81038        43.63997         1.34021
C         22.86617        46.67748         1.07807
C         21.78615        47.47237         1.34020
C         22.78453        49.32915         0.14679
C         21.72459        48.80396         0.81471
C         25.44191        23.10754        -0.93711
C         25.38561        24.42191        -0.44669
C         24.16232        25.18108        -0.39009
C         25.41565        27.32276        -0.00558
C         24.18324        26.60688        -0.24123
C         25.47478        28.71676         0.10342
C         24.17513        29.50392         0.16686
C         25.40420        31.62928         0.43019
C         24.37721        30.91330        -0.42127
C         25.39514        33.12773         0.47384
C         24.22328        33.84347        -0.10787
C         25.38294        35.98890         0.19359
C         24.19308        35.27388         0.04234
C         25.38172        37.46054         0.32415
C         24.06344        38.21367         0.34977
C         25.26124        40.34987        -0.15945
C         24.06268        39.65432        -0.02264
C         25.20320        41.80133        -0.45015
C         24.01831        42.52474         0.05242
C         25.27004        44.73780         0.04883
C         24.08885        43.90478         0.39390
C         25.23876        46.22562         0.10025
C         23.94738        47.00518         0.14366
C         25.24737        49.17508        -0.40033
C         23.93356        48.50141        -0.26204
C         25.31942        50.56977        -0.58852
C         27.88511        23.00019        -0.67734
C         26.63750        22.39720        -0.98338
C         27.91541        24.37066        -0.28644
C         26.63682        25.03363         0.00834
C         27.94387        27.26122         0.21486
C         26.64805        26.56399         0.24911
C         27.93370        28.69118         0.38173
C         26.71166        29.39122         0.37987
C         27.96486        31.63804         0.85303
C         26.67662        30.85586         0.69717
C         27.99118        33.14162         0.67605
C         26.68613        33.89322         0.60271
C         27.84270        36.02344        -0.02360
C         26.66103        35.32070         0.16935
C         27.79875        37.47052        -0.18835
C         26.61574        38.18536        -0.02773
C         27.81837        40.47376        -0.36447
C         26.55262        39.67199        -0.00931
C         27.74956        41.88757        -0.76817
C         26.47369        42.61362        -0.66468
C         27.64019        44.85409        -0.73133
C         26.41527        44.08563        -0.40470
C         27.66728        46.32398        -0.43843
C         26.38759        46.97873        -0.10115
C         27.68978        49.12482        -0.21041
C         26.43504        48.43658        -0.21710
C         27.73749        50.53996        -0.30078
C         26.52891        51.23875        -0.53331
C         30.33068        20.11251        -0.92033
C         29.15446        20.83357        -0.90662
C         30.34008        22.96884        -0.67838
C         29.11955        22.25702        -0.76475
C         30.36036        24.35667        -0.40064
C         29.13189        25.08366        -0.14670
C         30.41166        27.21893         0.26674
C         29.12562        26.50222         0.14145
C         30.47145        28.70303         0.19672
C         29.23076        29.39822         0.61953
C         30.55523        31.66051         0.51388
C         29.27635        30.90026         0.79693
C         30.52490        33.08076         0.06167
C         29.19792        33.77346         0.01730
C         30.40961        36.01983        -0.50141
C         29.11323        35.25973        -0.28443
C         30.26619        37.51467        -0.28610
C         29.04917        38.17789        -0.36659
C         30.33965        40.41073        -0.76792
C         29.03297        39.64155        -0.65746
C         30.29520        41.91871        -0.71542
C         28.97912        42.65441        -0.99464
C         30.22546        44.85690        -0.34419
C         28.97186        44.15264        -0.80585
C         30.10806        46.19081         0.37016
C         28.93401        47.01191        -0.10128
C         30.15034        49.12490         0.23316
C         28.93523        48.40126        -0.01345
C         30.20966        50.53118         0.12127
C         29.00144        51.24631        -0.17421
C         30.26992        53.31944        -0.28488
C         29.06162        52.64835        -0.31253
C         32.90456        18.63799        -1.14487
C         32.83854        20.06714        -0.91216
C         31.60803        20.74981        -0.88948
C         32.92248        22.94607        -0.62139
C         31.59652        22.22668        -0.91768
C         32.83205        24.34052        -0.20557
C         31.62856        25.00907        -0.22586
C         32.90421        27.10790        -0.51625
C         31.66679        26.45877         0.07644
C         32.84022        28.66940        -0.64155
C         31.66694        29.35170         0.05020
C         32.97931        31.52970        -0.34531
C         31.78759        30.82844         0.19195
C         32.95839        32.95559        -0.44826
C         31.69225        33.70606        -0.35083
C         33.10424        35.77677        -0.74222
C         31.72353        35.18374        -0.65017
C         33.23831        37.20115        -0.63811
C         31.42191        38.34847        -0.10179
C         32.92821        40.26834        -0.63819
C         31.56346        39.67158        -0.40011
C         33.16566        41.56007         0.02273
C         31.25389        42.67722         0.10259
C         32.65412        44.72482         0.43379
C         31.35674        44.03397         0.15226
C         32.68754        46.24240         0.51066
C         31.41108        46.94687         0.44805
C         32.63457        49.14099         0.92849
C         31.34421        48.38369         0.67505
C         32.70906        50.54191         0.45406
C         31.47971        51.22976         0.16967
C         32.74642        53.31045        -0.33047
C         31.49595        52.62930        -0.11997
C         32.83140        54.67322        -0.61817
C         35.40832        18.64255        -1.15122
C         34.07108        17.95871        -1.23512
C         35.29114        20.02372        -0.56737
C         34.09477        20.74245        -0.59208
C         35.28300        22.82903         0.12669
C         34.09838        22.14442        -0.26453
C         35.32452        24.22298         0.17562
C         34.04061        24.98305         0.43898
C         35.39503        27.21740         0.03541
C         34.10911        26.50102         0.19516
C         35.35790        28.63714        -0.39853
C         34.17966        29.34501        -0.41121
C         35.43065        31.48455        -0.49656
C         34.17866        30.79608        -0.49080
C         35.43345        32.90717        -0.52579
C         34.20139        33.61411        -0.65843
C         35.57661        35.71929        -0.82449
C         34.27526        35.04167        -0.86137
C         35.81352        37.06023        -1.21368
C         33.97849        38.05936        -1.38994
C         35.58036        39.96243        -1.39686
C         34.10001        39.51588        -1.21205
C         35.32887        42.52379        -0.82873
C         34.03632        42.47819        -0.39566
C         35.18833        44.74697         0.83502
C         33.84577        44.08473         1.12694
C         35.16151        46.21224         0.98215
C         33.94702        46.90473         0.96639
C         35.23531        49.12621         1.05896
C         33.91713        48.37208         1.14281
C         35.22605        50.51874         0.50512
C         33.96482        51.14843         0.22789
C         35.30792        53.25980        -0.47563
C         33.97399        52.50413        -0.36057
C         35.28476        54.72742        -0.53029
C         34.05391        55.35949        -0.71300
C         37.52439        15.72103         0.10314
C         36.40168        16.46144        -0.28383
C         37.79500        18.47517        -0.30140
C         36.52343        17.82569        -0.51305
C         37.79172        19.87570        -0.16025
C         36.47715        20.53005         0.21179
C         37.82945        22.78985         0.40236
C         36.53040        22.05290         0.36726
C         37.88483        24.27142         0.38668
C         36.61406        24.94107         0.06564
C         37.94222        27.10255         0.23448
C         36.66329        26.42704        -0.07274
C         37.93131        28.53478        -0.16565
C         36.66810        29.30766        -0.49713
C         37.85620        31.49727        -0.18374
C         36.66870        30.78727        -0.39906
C         37.84542        32.91539        -0.05194
C         36.64779        33.61136        -0.28014
C         37.79705        35.79234         0.21353
C         36.68441        35.05104        -0.25795
C         37.77850        37.20224         0.17455
C         36.78707        37.88941        -0.57764
C         37.68571        40.16468        -0.00224
C         36.71656        39.36688        -0.59004
C         37.54261        41.63069         0.43960
C         36.36148        42.56944         0.25820
C         37.65187        44.69416         0.90804
C         36.35232        44.03563         0.67542
C         37.70009        46.17923         0.58594
C         36.42902        46.93349         0.98723
C         37.75324        49.03977         1.00986
C         36.46347        48.30648         0.95911
C         37.71068        50.51576         0.73807
C         36.45270        51.17489         0.29116
C         37.74266        53.28930        -0.08772
C         36.54275        52.56684        -0.07042
C         37.75368        54.73024        -0.21487
C         36.52708        55.44362        -0.40936
C         37.76474        57.54993        -0.49245
C         36.57258        56.85903        -0.51525
C         40.76569        14.08402        -1.16093
C         40.75978        15.33728        -0.55999
C         38.78620        16.33559         0.12602
C         40.35790        18.33848         0.06008
C         38.99836        17.69546        -0.13538
C         40.34967        19.88058         0.12993
C         39.06702        20.60003        -0.15651
C         40.32507        22.78608         0.35390
C         39.08063        22.09354         0.00020
C         40.28054        24.09484         0.83704
C         39.06141        24.93385         0.70510
C         40.31132        27.19102         0.89406
C         39.07454        26.42426         0.67930
C         40.31965        28.67146         0.73166
C         39.08867        29.34825         0.27425
C         40.30855        31.51634         0.60476
C         39.14384        30.79408        -0.06083
C         39.93025        32.81148         1.13785
C         38.94424        33.59868         0.59842
C         40.23414        35.83491         1.12329
C         38.91531        35.06033         0.86670
C         40.21848        37.29202         0.83690
C         38.89589        37.97346         0.77503
C         40.18883        40.16036         0.60986
C         38.87234        39.47724         0.62635
C         40.14404        41.62726         0.80096
C         38.82674        42.33561         0.88870
C         40.18511        44.53778         0.53627
C         38.90534        43.86278         0.90348
C         40.15816        46.01767         0.34061
C         39.05166        46.76036         1.08965
C         40.29992        48.99308         0.51668
C         39.06651        48.29352         0.96011
C         40.29594        50.41193         0.45927
C         39.02446        51.19574         0.53726
C         40.25053        53.28333         0.26579
C         39.04011        52.51976        -0.21205
C         40.20185        54.76680         0.29634
C         38.96709        55.47577        -0.10381
C         40.25832        57.62226        -0.33358
C         39.00318        56.87898        -0.29080
C         40.33944        58.90590        -0.86953
C         42.83332        14.65356        -2.24828
C         41.77053        13.77141        -2.08679
C         42.87294        15.89743        -1.58620
C         41.72393        16.35604        -0.85221
C         42.88598        18.49728        -0.36318
C         41.63814        17.69643        -0.35777
C         42.87048        20.00607        -0.11613
C         41.57668        20.69846        -0.00909
C         42.82894        22.82299         0.33661
C         41.56696        22.08406         0.17814
C         42.78919        24.12604         0.98577
C         41.53501        24.56967         1.36502
C         42.78541        27.24242         1.12509
C         41.45094        26.72132         1.49659
C         42.84251        28.69665         0.76913
C         41.58030        29.45545         0.85507
C         42.78097        31.53275         1.61262
C         41.55063        30.80638         1.03071
C         42.83636        33.03765         1.35707
C         41.72897        33.83551         1.61567
C         42.74048        35.83193         0.76482
C         41.57523        35.17717         1.17258
C         42.65826        37.27397         0.41950
C         41.38376        37.99971         0.68237
C         42.66872        40.16543         0.75313
C         41.38321        39.46056         0.65002
C         42.61442        41.64685         0.95549
C         41.38704        42.39425         0.60922
C         42.66783        44.46707         0.03662
C         41.37802        43.80070         0.43068
C         42.69404        45.99946        -0.25464
C         41.41646        46.77217        -0.00985
C         42.71420        48.91417         0.11409
C         41.49320        48.24302         0.26935
C         42.71618        50.37409        -0.03999
C         41.48670        51.12658         0.21687
C         42.75184        53.25784         0.14148
C         41.54834        52.55590         0.17339
C         42.75347        54.74598        -0.11006
C         41.50660        55.49583         0.33149
C         42.82410        57.61327        -0.27972
C         41.52830        56.97466         0.05241
C         42.79291        58.90801        -0.81478
C         41.57718        59.54545        -1.07757
C         45.32166        16.07487        -1.97008
C         44.10537        16.67003        -1.56050
C         45.33364        18.71107        -0.98061
C         44.11902        17.96316        -0.99668
C         45.34896        20.13910        -0.66024
C         44.01227        20.85433        -0.65845
C         45.30328        22.86768         0.34469
C         44.02153        22.20808         0.02701
C         45.35018        24.24959         0.94188
C         44.03947        24.92940         1.27784
C         45.31115        27.25721         1.19693
C         44.04821        26.46178         1.37500
C         45.34019        28.63206         1.11864
C         44.14306        29.45577         0.67286
C         45.27042        31.56433         1.25485
C         44.08574        30.86332         1.22616
C         45.28565        33.02805         1.18904
C         44.04300        33.72698         1.06032
C         45.23832        35.84635         0.71891
C         44.00083        35.14211         0.82691
C         45.24094        37.29732         0.35151
C         43.93219        38.05639         0.27105
C         45.16238        40.27317         0.61844
C         43.87480        39.51618         0.58883
C         45.18773        41.62984         1.31433
C         43.88013        42.42988         1.13945
C         45.13070        44.09763        -0.07678
C         43.91467        43.73784         0.42520
C         45.19106        46.23044        -0.53261
C         43.94963        46.81420        -0.24367
C         45.21896        48.92510        -0.01870
C         43.96420        48.21890        -0.02550
C         45.28158        50.35609         0.12440
C         44.03356        51.12131        -0.04555
C         45.22922        53.23666         0.36200
C         44.02848        52.57987         0.19262
C         45.26716        54.70448         0.56269
C         43.97889        55.48316         0.40205
C         45.29223        57.53791         0.09875
C         44.04281        56.92372         0.05710
C         46.52328        16.73395        -1.78672
C         47.83403        18.78912        -1.30529
C         46.54223        18.05762        -1.31557
C         47.81695        20.28193        -1.02129
C         46.50970        20.87042        -0.65255
C         47.78609        23.08809        -0.23849
C         46.50170        22.33022        -0.37125
C         47.76691        24.44615         0.38537
C         46.59439        25.06174         0.78738
C         47.75557        27.29916         0.80829
C         46.61210        26.47739         1.37354
C         47.82673        28.73981         1.13206
C         46.57208        29.42964         1.22890
C         47.76888        31.58394         1.57337
C         46.52972        30.83172         1.28690
C         47.76989        33.12195         1.64940
C         46.47554        33.75780         1.17401
C         47.72082        35.90587         1.12802
C         46.44335        35.16180         0.94614
C         47.74531        37.39090         0.98630
C         46.51863        38.06983         0.45556
C         47.75957        40.21808         0.99622
C         46.49848        39.56963         0.54423
C         47.72251        41.66965         1.21680
C         46.45197        42.36490         0.91163
C         47.61596        44.53271         0.43469
C         46.41394        43.62367         0.40579
C         47.63789        46.00627         0.10854
C         46.42399        46.81166        -0.20636
C         47.72445        48.89547        -0.03779
C         46.44949        48.20907        -0.01939
C         47.73517        50.33941         0.06630
C         46.48772        51.02942         0.26060
C         47.75986        53.23682         0.29775
C         46.50044        52.48348         0.67738
C         47.77718        54.65528         0.28884
C         46.53933        55.42626         0.39102
C         46.49543        56.80851         0.26246
C         50.22144        18.76414        -0.72794
C         49.08038        18.07787        -1.00028
C         50.26433        20.20232        -0.64490
C         49.08603        20.95416        -0.65560
C         50.26566        23.05227        -0.10466
C         49.08221        22.36178        -0.33960
C         50.25313        24.45597         0.25292
C         49.04349        25.12613         0.42338
C         50.29502        27.32618         0.57772
C         49.03181        26.59387         0.45708
C         50.27863        28.72366         0.78278
C         49.04053        29.41673         1.01982
C         50.31982        31.60353         1.05940
C         49.09575        30.84947         1.36356
C         50.35983        33.11203         1.16570
C         49.01034        33.78632         1.05538
C         50.17495        35.91789         0.60598
C         48.99854        35.17146         0.93096
C         50.20572        37.34152         0.60520
C         49.03026        38.09213         0.78039
C         50.23883        40.23317         0.83515
C         49.00381        39.53736         0.83947
C         50.29250        41.69006         0.98215
C         49.00444        42.45558         1.06007
C         50.19066        44.55653         0.04944
C         48.92667        43.78739         0.37110
C         50.14183        46.03186        -0.07737
C         48.94505        46.71315        -0.08544
C         50.14141        48.86332        -0.56365
C         48.91117        48.15897        -0.16942
C         50.12183        50.39169        -0.58365
C         48.92913        51.06931        -0.05787
C         50.21130        53.19769         0.09244
C         48.96637        52.51038         0.13470
C         50.21234        54.59629         0.10117
C         49.01989        55.31200         0.14761
C         52.81718        20.20089        -0.20588
C         51.57249        20.89055        -0.58660
C         52.80711        23.07833         0.06157
C         51.56235        22.40462        -0.36381
C         52.74220        24.47160         0.28018
C         51.50746        25.17751         0.35860
C         52.74429        27.31708         0.71259
C         51.50762        26.59546         0.53452
C         52.73540        28.76047         0.80994
C         51.51385        29.45272         0.81798
C         52.74531        31.58414         0.55261
C         51.50563        30.90163         0.81201
C         52.68499        32.96816         0.06071
C         51.36849        33.70011         0.16753
C         52.59732        35.91991        -0.29338
C         51.23711        35.19612        -0.17715
C         52.65121        37.35261         0.12370
C         51.49868        38.01835         0.46770
C         52.75513        40.24550         0.35556
C         51.51082        39.48697         0.73770
C         52.65618        41.69352        -0.08673
C         51.54821        42.47296         0.59650
C         52.68053        44.60156        -0.05865
C         51.48760        43.90435         0.25992
C         52.67070        45.97452        -0.26284
C         51.45060        46.78068         0.11850
C         52.63010        48.88846        -0.53986
C         51.44721        48.18579        -0.45154
C         52.68422        50.32943        -0.62988
C         51.41858        51.17278        -0.74289
C         52.77200        53.12554        -0.04793
C         51.48335        52.37310         0.20711
C         53.94640        20.88529         0.10090
C         55.24726        22.97687         0.50641
C         54.01658        22.33344         0.18250
C         55.32428        24.43780         0.44551
C         53.99460        25.23074         0.32866
C         55.18427        27.33173         1.11435
C         53.95190        26.63585         0.71279
C         55.21436        28.79650         0.89905
C         53.97880        29.47724         0.77559
C         55.21098        31.58055         0.28883
C         53.97396        30.89214         0.54890
C         55.15197        32.98864        -0.07189
C         53.95456        33.67554        -0.20424
C         55.19170        35.90639        -0.50122
C         53.89051        35.14701        -0.47749
C         55.22203        37.36027        -0.23519
C         53.99837        38.05235         0.32272
C         55.23757        40.25320        -0.17303
C         53.92132        39.48337        -0.25349
C         55.24259        41.64744        -0.15228
C         53.99049        42.38938         0.12189
C         55.23799        44.57971        -0.30427
C         53.98325        43.87995         0.05094
C         55.20859        45.94566        -0.43311
C         53.91392        46.68724        -0.71613
C         55.21405        48.90834        -0.46475
C         53.91581        48.15852        -0.33394
C         55.15381        50.33706        -0.83618
C         53.88524        51.02573        -0.65762
C         53.86867        52.47618        -0.48809
C         57.65021        22.98098         1.00294
C         56.45919        22.30280         0.81844
C         57.71793        24.41189         1.06195
C         56.52911        25.12001         0.93387
C         57.75133        27.31550         1.30261
C         56.46467        26.55325         1.27653
C         57.71217        28.78833         1.01238
C         56.42624        29.49150         0.75759
C         57.74376        31.53839         0.27716
C         56.44127        30.87589         0.41186
C         57.75228        32.96165        -0.14756
C         56.44625        33.64637        -0.40639
C         57.72636        35.85490        -0.14184
C         56.46879        35.14068        -0.51971
C         57.70776        37.34648        -0.17395
C         56.40715        38.05659        -0.31083
C         57.69578        40.17441        -0.37008
C         56.45989        39.51052        -0.28537
C         57.71689        41.64310        -0.28290
C         56.45466        42.40355        -0.28375
C         57.64490        44.49165        -0.94847
C         56.46898        43.80708        -0.42297
C         57.58952        45.86669        -1.19870
C         56.48391        46.66027        -0.63923
C         57.56876        48.83642        -1.50108
C         56.50321        48.16045        -0.71839
C         57.41859        50.17643        -1.78821
C         56.24697        50.91941        -1.44025
C         60.22524        24.44892         1.17138
C         58.99852        25.13834         1.16310
C         60.24182        27.26344         1.05363
C         59.02089        26.55769         1.12863
C         60.25910        28.79306         1.04014
C         58.96813        29.35585         0.38742
C         60.25684        31.55396         0.33004
C         58.93465        30.86472         0.35448
C         60.28676        33.05410         0.12027
C         59.00651        33.75432        -0.07928
C         60.21882        35.87838        -0.45011
C         59.00988        35.12541        -0.27213
C         60.18231        37.30629        -0.59260
C         58.97307        38.05439        -0.44518
C         60.14240        40.16358        -0.93833
C         58.94256        39.46214        -0.55504
C         60.12393        41.55502        -1.23055
C         58.99596        42.37684        -0.77633
C         59.93895        44.34462        -1.92213
C         58.85111        43.75685        -1.26404
C         59.87825        45.76069        -2.36250
C         58.62568        46.57205        -1.96018
C         59.87487        48.64587        -2.40143
C         58.71640        48.05175        -1.94270
C         61.43097        25.14599         1.15594
C         61.44266        26.54016         1.08754
C         61.42762        29.39250         0.28637
C         61.42474        30.69799        -0.01648
C         61.49369        33.78932        -0.28016
C         61.44486        35.12637        -0.53770
C         61.37065        38.04547        -0.89297
C         61.34105        39.40171        -1.08919
C         61.16622        42.21530        -1.92409
C         61.09725        43.56619        -2.21010
C         61.10248        46.53578        -2.59005
C         61.05856        47.89518        -2.68497
O         40.02664        53.96106         1.53259
O         27.45469        33.80710         1.85291
O         55.90848        35.61613        -1.77782
O         38.52669        48.81587         2.23277
O         44.44998        55.13933         1.72779
O         47.88413        19.76362        -2.39915
O         32.53651        29.00235        -1.98862
O         40.38625        46.48568        -1.02068
O         34.56825        48.90675         2.34309
O         52.51624        39.96819         1.74778
O         27.52776        45.80656        -1.83553
O         28.87648        34.25364        -1.33243
O         29.64462        39.91209        -1.95096
O         24.78284        37.96477         1.58799
O         58.80258        46.01584        -3.31622
O         23.06029        45.56089         1.88961
O         37.20004        22.33276         1.66096
O         48.40758        42.29577         2.36927
O         32.43599        22.74129        -1.99696
O         34.68621        27.15743         1.35845
O         33.72414        43.44695         2.16671
O         47.54613        45.50028         1.52380
O         33.02686        45.46071        -0.76803
O         49.89368        49.61826        -1.81384
O         54.07257        43.17437         1.34677
O         23.56485        47.43977        -1.19832
O         45.22122        44.98165        -1.14861
O         35.85660        40.65046        -2.36263
O         22.50158        36.54877         1.33419
O         45.90357        40.23528        -0.63894
O         38.55690        38.82402         1.91049
O         39.85296        15.51101         0.48637
O         42.61173        45.01129        -1.31610
O         40.64004        33.23642         2.26773
O         40.19010        31.36780        -0.87519
O         36.39084        41.66969         1.37454
O         38.26622        44.31736         2.16441
O         40.35777        19.06752         1.34390
O         32.11112        41.90468         0.89037
O         39.12116        21.50492        -1.34315
O         39.29155        35.50038         2.19774
O         32.53177        37.72364         0.45432
O         43.03662        42.22424         2.30445
O         46.09638        37.54081        -0.83066
O         49.42197        43.77215        -0.99492
O         39.43777        41.85448         2.11518
O         29.88190        44.82904        -1.73978
O         51.70912        21.82774        -1.70526
O         37.55515        28.76462        -1.55823
O         31.26053        26.77278         1.43136
O         25.59151        42.19351        -1.81066
O         48.07966        27.08108        -0.59216
O         39.31134        29.19740         1.72123
O         54.63809        48.56927         0.84534
O         55.62544        26.83888         2.45131
O         60.43221        32.43509         1.48557
O         43.16971        37.64540        -0.91294
O         30.94889        35.66208        -1.81294
O         24.93188        32.31917         1.60901
O         27.39320        40.29005         1.04249
O         56.97706        47.50036         0.50133
O         41.43131        25.59697         2.30652
O         53.11874        35.61833        -1.63482
O         42.74549        27.67569        -0.29343
O         34.69092        52.60218        -1.63945
O         27.20458        31.20387         2.00696
O         43.19781        19.11261         0.96776
O         44.07573        25.62489         2.57415
O         47.63961        36.77966         2.32053
O         31.73376        48.88782         2.05151
O         57.15561        33.02170        -1.52878
O         31.54412        31.36498         1.54482
O         57.68674        36.58881         1.12115
O         48.51650        31.06023         2.72684
O         38.36589        51.27930         1.82345
O         33.22128        40.30164        -2.07892
O         29.94659        42.37447        -2.05334
O         29.38241        30.01316         1.94308
O         45.56062        23.05090         1.78779
O         34.97962        37.54574        -2.24633
O         51.62751        32.96611        -1.04326
O         46.99131        23.11550        -1.50275
O         43.37144        50.78813        -1.31725
O         58.70084        42.19015         0.64565
O         51.26900        42.16989         1.98216
O         36.69685        25.60967        -1.29022
O         54.86464        25.00482        -0.83894
O         57.83838        28.30513         2.39164
O         41.60396        56.40019         1.44044
O         26.53941        25.60946         1.35349
O         24.98551        30.78288        -1.73461
H         24.32083        30.39117        -2.33979
O         43.68383        21.07079        -2.06521
H         44.42056        21.56680        -2.48239
O         53.61438        39.34287        -1.67250
H         54.21876        38.67115        -2.05889
O         39.24138        52.25698        -1.62632
H         38.39874        51.94180        -2.01543
O         47.84809        33.47033         3.06624
H         48.12852        32.65645         3.55027
O         46.84560        26.33931         2.79812
H         46.03884        25.92098         3.18252
O         60.35399        29.25269         2.39879
H         59.54660        28.93919         2.87286
O         51.56065        46.98592         1.57300
H         51.73742        46.11835         1.99666
O         29.77052        45.81083         1.76541
H         29.89383        46.60345         2.33262
O         35.72104        43.15181        -1.95488
H         34.98866        43.15042        -2.60602
O         50.64948        35.23346        -1.50532
H         51.18882        34.62304        -2.06311
O         23.86464        29.67675         1.56954
H         23.88208        28.80034         2.00647
O         45.36063        41.34253         2.71880
H         44.53701        41.62442         3.18535
O         37.73418        46.31067        -0.85830
H         36.91645        45.91677        -1.22945
O         33.83169        24.79524         1.87334
H         34.12769        25.62323         2.32205
O         51.51600        51.83942         1.55500
H         51.63417        52.58102         2.18372
O         52.34032        41.72920        -1.49712
H         52.78268        40.96509        -1.94082
O         58.99203        28.90275        -0.99738
H         58.31328        29.39951        -1.50150
O         51.40094        51.72627        -2.08178
H         51.05082        51.02176        -2.67333
O         50.91555        33.46957         2.47708
H         50.19333        33.38894         3.13853
O         54.26465        38.05739         1.74201
H         53.64786        38.70221         2.17359
O         33.01075        26.59488        -1.85779
H         32.84861        27.39751        -2.44090
O         42.76173        54.89755        -1.57053
H         43.15537        54.09293        -1.97112
O         36.18345        20.00365         1.55517
H         36.63749        20.60381         2.19461
O         44.38842        29.66925        -0.75547
H         44.08999        28.85539        -1.22280
O         39.29804        46.47451         2.46486
H         38.79894        47.12828         3.00749
O         42.65380        31.34483         3.05570
H         41.86318        31.85412         3.34652
O         35.85747        18.83808        -2.54647
H         35.16323        19.34974        -3.01468
O         53.84830        46.73345        -2.19244
H         53.64126        45.83230        -2.52083
O         46.53416        52.43194         2.15476
H         46.30985        53.32682         2.49131
H         22.88255        23.42720        -0.61489
H         20.77713        24.71003        -0.75617
H         20.81312        27.18827        -0.70552
H         21.04154        29.04336        -1.30827
H         21.00612        31.47236        -1.12497
H         21.07738        33.36298        -1.40203
H         20.82369        35.71169        -0.81504
H         20.63853        37.69393        -0.30716
H         20.67198        40.13371        -0.39728
H         20.76634        41.79339         0.94395
H         20.99240        44.08891         1.91774
H         21.03637        47.14016         2.06928
H         22.78656        50.39964        -0.09631
H         20.86451        49.43654         1.07335
H         24.52587        22.60720        -1.27890
H         24.40790        51.14875        -0.78381
H         26.61083        21.35679        -1.33302
H         26.52693        52.32778        -0.66576
H         30.27021        19.01580        -0.94662
H         28.20783        20.27738        -0.93941
H         30.26716        54.40499        -0.44382
H         28.14915        53.23239        -0.48561
H         31.96378        18.08944        -1.29499
H         31.91607        55.27423        -0.69608
H         34.04569        16.89263        -1.50270
H         34.01060        56.44764        -0.85373
H         37.44238        14.65326         0.34093
H         35.43599        15.95090        -0.39387
H         37.74312        58.64316        -0.59119
H         35.64160        57.42687        -0.64061
H         39.99470        13.35106        -0.89203
H         39.42866        59.43488        -1.18127
H         43.66448        14.35484        -2.89889
H         41.76348        12.80799        -2.61316
H         43.73133        59.43192        -1.04378
H         41.58419        60.55866        -1.50207
H         45.33509        15.06151        -2.38890
H         45.37208        58.62205        -0.06441
H         47.46180        16.24075        -2.07293
H         47.43113        57.37988         0.19453
H         51.14557        18.19958        -0.54340
H         49.07687        16.97967        -0.95471
H         51.15636        55.15510         0.05492
H         49.06702        56.40829         0.12532
H         52.83365        19.10282        -0.16502
H         52.84143        54.19621         0.19380
H         54.85109        20.30907         0.33858
H         54.81266        53.02661        -0.61324
H         58.56102        22.39104         1.16995
H         56.47809        21.20512         0.85881
H         58.19622        50.70438        -2.35773
H         56.20171        51.97118        -1.75551
H         60.24586        23.35169         1.19996
H         59.95059        49.74151        -2.43422
H         62.38002        24.59339         1.18666
H         62.40637        27.06677         1.07891
H         62.28989        28.76912         0.00868
H         62.28500        31.15573        -0.52776
H         62.45946        33.26500        -0.27843
H         62.38258        35.64397        -0.77997
H         62.33070        37.52352        -0.99293
H         62.27863        39.91950        -1.33181
H         62.04853        41.65111        -2.25475
H         61.93300        44.03120        -2.74955
H         62.06904        46.01694        -2.65233
H         61.98221        48.45241        -2.89645
