         404
 CSIRO Nanostructure Databank - Neutral Graphene Oxide Data Set
C          1.22948         3.49296        -0.37610
C          0.03314         4.13490        -0.08552
C          1.21990         6.18467         0.54028
C          0.01964         5.46605         0.34677
C          1.21402         7.62811         0.82028
C         -0.00326         8.34553         0.91318
C          1.16959        10.48699         0.95649
C         -0.02274         9.72560         0.99717
C          1.15062        11.93455         0.98031
C         -0.06286        12.66367         1.00544
C          1.12494        14.79543         0.95960
C         -0.07676        14.04624         0.98434
C          1.12330        16.23862         0.88677
C         -0.07055        16.98133         0.71219
C          1.15710        19.09610         0.66932
C         -0.05118        18.35601         0.56825
C          1.21938        20.50218         0.42151
C          0.10980        21.18701        -0.17522
C          1.42138        23.25108        -0.38293
C          0.20324        22.47533        -0.60781
C          1.38599        24.79968        -0.44990
C          0.10835        25.48996        -0.69614
C          1.05806        27.61660         0.08270
C         -0.05948        26.79557        -0.40254
C          1.09150        29.15250        -0.19746
C         -0.03056        29.77043        -0.89873
C          1.32450        31.72922        -1.45860
C          0.10016        30.98520        -1.50119
C          1.38035        33.08525        -1.93423
C          0.21824        33.75629        -2.49731
C          1.38479        35.91902        -2.69779
C          0.21605        35.05462        -2.90005
C          1.56300        37.20583        -3.40910
C          3.70123         3.53839        -0.48035
C          2.46150         4.17223        -0.18969
C          3.72186         6.15373         0.61658
C          2.44139         5.50779         0.31100
C          3.71121         7.67226         0.91414
C          2.41773         8.36940         0.86323
C          3.65346        10.52849         0.86328
C          2.41153         9.79233         0.89134
C          3.62750        11.95261         0.91087
C          2.37822        12.65736         0.96467
C          3.59893        14.81101         0.96750
C          2.36268        14.08702         0.97965
C          3.59036        16.25060         1.04884
C          2.35747        16.95421         0.98336
C          3.56717        19.09463         1.24544
C          2.36467        18.38566         0.96341
C          3.58366        20.55371         1.26275
C          2.41502        21.24407         0.71624
C          3.53970        23.43489         0.99408
C          2.47280        22.61240         0.42229
C          3.66267        24.87879         0.65515
C          2.46240        25.57541         0.21045
C          3.49693        27.78936         0.71032
C          2.34469        26.94476         0.32210
C          3.57132        29.17580         0.18605
C          2.41034        29.81332        -0.29782
C          3.72961        31.82466        -0.81289
C          2.48420        31.11894        -0.87431
C          3.80834        33.14595        -1.41493
C          2.60714        33.76285        -1.91361
C          3.92818        35.79887        -2.67236
C          2.64212        35.20159        -2.23880
C          3.99235        37.24594        -2.97042
C          2.75519        37.85727        -3.42972
C          6.15527         3.58700        -0.71715
C          4.93508         4.21876        -0.37668
C          6.16510         6.30806         0.14678
C          4.96554         5.56940         0.11595
C          6.15992         7.72464         0.44976
C          4.95089         8.41813         0.68598
C          6.12792        10.58404         0.69953
C          4.90264         9.84361         0.73896
C          6.10178        11.99953         0.75656
C          4.84834        12.69503         0.84687
C          6.06437        14.90111         0.56742
C          4.81827        14.11354         0.87311
C          6.06107        16.29226         1.13603
C          4.80786        16.97440         1.24399
C          5.95886        19.06237         2.00420
C          4.75621        18.38062         1.47429
C          5.91746        20.57896         2.30329
C          4.72765        21.24379         1.62413
C          6.02305        23.44324         1.76391
C          4.71030        22.71456         1.66524
C          6.05957        24.90028         1.40330
C          4.80865        25.57135         0.95616
C          6.07034        27.75723         0.68812
C          4.81178        27.04933         0.95278
C          6.06061        29.11821         0.44715
C          4.82861        29.84748         0.17940
C          6.09110        32.02675        -0.03147
C          4.86628        31.21546        -0.23093
C          6.19791        33.34767        -0.75602
C          5.02868        33.82389        -1.49410
C          6.40577        35.86603        -2.10821
C          5.18253        35.07069        -2.25253
C          6.42679        37.22800        -2.50363
C          5.20712        37.88494        -2.94109
C          8.60163         3.63816        -0.95588
C          7.38092         4.27707        -0.63151
C          8.60752         6.38583        -0.22995
C          7.38910         5.66666        -0.24013
C          8.59961         7.76543         0.13856
C          7.39836         8.45089         0.41648
C          8.57885        10.62897         0.61729
C          7.38187         9.88643         0.60923
C          8.57814        12.04700         0.70606
C          7.33425        12.74444         0.76634
C          8.55320        14.87267         0.94020
C          7.33619        14.15138         0.83793
C          8.52185        16.28725         1.11123
C          7.28306        16.95583         1.30178
C          8.55394        19.07452         2.07213
C          7.26538        18.31046         1.89796
C          8.50903        20.56408         2.20753
C          7.24054        21.31160         1.99560
C          8.55206        23.32266         1.18460
C          7.27544        22.64042         1.68984
C          8.54513        24.84551         1.12540
C          7.35318        25.53803         1.03569
C          8.64732        27.67793         0.50995
C          7.31468        26.94938         0.59690
C          8.62875        29.15002         0.54026
C          7.34488        29.86407         0.53189
C          8.67947        32.14554         0.28821
C          7.36509        31.35431         0.40386
C          8.73527        33.05829        -0.95221
C          7.51443        33.91888        -1.09168
C          8.83507        35.91820        -1.67253
C          7.58078        35.21605        -1.62449
C          8.84179        37.31212        -1.99093
C          7.63517        37.94569        -2.39440
C         11.04203         3.68688        -1.27929
C          9.82902         4.33266        -0.93212
C         11.06750         6.44154        -0.62903
C          9.84484         5.73000        -0.57519
C         11.10228         7.84870        -0.33806
C          9.88789         8.45882         0.25321
C         11.05178        10.73751         0.14200
C          9.87375         9.94240         0.52186
C         11.03817        12.10202         0.35097
C          9.80630        12.78264         0.69700
C         11.05747        14.91832         0.88480
C          9.80623        14.18203         0.84350
C         11.05478        16.29476         1.10436
C          9.78695        17.03694         1.09356
C         11.11851        19.13166         1.86535
C          9.82758        18.48090         1.54604
C         11.09707        20.54355         2.29397
C          9.80379        21.32608         2.22524
C         11.10302        23.43672         1.59208
C          9.80338        22.76815         1.84755
C         11.07457        24.83439         1.30381
C          9.83084        25.53036         1.05210
C         11.07124        27.66489         1.03927
C          9.86781        26.93268         0.87507
C         11.03798        29.14219         1.02107
C          9.82497        29.87170         0.59783
C         11.17527        31.86757         0.00143
C          9.90917        31.26391         0.32700
C         11.21366        33.16112        -0.69954
C         10.04261        33.82837        -1.00999
C         11.24187        35.98226        -1.30948
C         10.04860        35.23546        -1.37096
C         11.24961        37.39614        -1.51559
C         10.05823        38.03862        -1.87708
C         13.47370         3.75788        -1.71625
C         12.26100         4.38936        -1.33334
C         13.48027         6.52967        -1.15950
C         12.27431         5.79782        -1.03729
C         13.45844         7.98141        -1.01815
C         12.23387         8.60422        -0.58824
C         13.40325        10.86805        -0.73206
C         12.11160        10.10300        -0.71192
C         13.38076        12.23848        -0.42664
C         12.24068        12.87624         0.13998
C         13.51314        14.96601         0.45237
C         12.28918        14.24020         0.53323
C         13.61643        16.29394         1.06942
C         12.29700        17.01232         1.41316
C         13.60163        19.17041         1.61821
C         12.32014        18.48606         1.60388
C         13.66145        20.57414         1.82918
C         12.40232        21.30792         2.15772
C         13.53953        23.45874         1.74792
C         12.31014        22.75493         1.81977
C         13.52091        24.84897         1.56112
C         12.30633        25.55752         1.33998
C         13.52084        27.74935         1.28415
C         12.29523        26.99513         1.23392
C         13.58989        29.11552         1.07714
C         12.35068        29.91209         0.99355
C         13.70595        31.60502        -0.24090
C         12.36097        31.21678         0.31796
C         13.84691        33.03725        -0.80885
C         12.51497        33.76881        -1.06429
C         13.73397        36.06163        -0.75952
C         12.53123        35.27900        -1.27142
C         13.72407        37.55804        -1.13108
C         12.48883        38.12819        -1.40067
C         15.86615         3.72384        -2.24267
C         14.70122         4.43269        -1.71903
C         15.88983         6.65922        -1.52012
C         14.70623         5.85050        -1.41583
C         15.79056         8.10642        -1.92270
C         14.57818         8.76433        -1.31693
C         15.79166        10.92806        -1.36546
C         14.58692        10.20395        -1.17763
C         15.77864        12.39258        -1.31507
C         14.51638        13.08891        -0.80219
C         15.85198        15.14936        -0.32592
C         14.63783        14.42770        -0.20881
C         15.94527        16.49657         0.19448
C         14.81975        17.11552         0.85446
C         16.09059        19.19306         1.34425
C         14.81303        18.46099         1.27052
C         16.14462        20.64687         1.61281
C         14.89204        21.30967         1.86380
C         15.83159        23.52035         2.55079
C         14.79044        22.75469         2.04287
C         15.92354        24.94497         2.36911
C         14.80667        25.57431         1.62381
C         15.94931        27.85171         2.01556
C         14.80105        27.04969         1.49032
C         16.02865        29.23747         1.52722
C         14.85002        29.81487         1.08721
C         16.09157        32.00597         0.85509
C         14.80281        31.24549         0.75712
C         16.18213        33.30851         0.17328
C         14.97711        33.90202        -0.29921
C         16.27384        35.81971        -0.92036
C         15.01897        35.25046        -0.76980
C         16.16227        38.02391        -0.86381
C         14.82070        38.43435        -0.79608
C         18.42675         3.74630        -2.50496
C         17.15236         4.04416        -1.88582
C         18.35375         6.76482        -1.79850
C         17.14873         6.12263        -1.36837
C         18.32631         8.19451        -1.85264
C         17.08172         8.86681        -1.69865
C         18.27088        11.02670        -1.68441
C         17.05005        10.26719        -1.57480
C         18.25219        12.45718        -1.53097
C         17.03780        13.13805        -1.22577
C         18.22535        15.27232        -1.05866
C         17.02221        14.51302        -0.88403
C         18.23579        16.66294        -0.73171
C         17.13077        17.22612        -0.01498
C         18.41720        19.38646         0.20138
C         17.31528        18.52341         0.64435
C         18.51916        20.69669         0.73090
C         17.44515        21.25643         1.55121
C         18.87724        23.28018         1.95787
C         17.76886        22.47417         2.22751
C         18.97633        24.63882         2.40170
C         17.04420        25.67967         2.68886
C         18.50117        27.79699         2.14273
C         17.19752        27.13632         2.43048
C         18.50953        29.20916         1.87513
C         17.28422        29.94119         1.60312
C         18.56741        32.00329         1.13182
C         17.32911        31.29327         1.21934
C         18.59138        33.38137         0.73146
C         17.39401        34.01568         0.23375
C         18.58498        36.19294        -0.03838
C         17.45690        35.34336        -0.29286
C         18.50996        37.64672        -0.05037
C         17.32038        38.44358        -0.19516
C         19.49305         4.60981        -2.47860
C         20.69334         6.78140        -2.38690
C         19.50980         6.02707        -2.14726
C         20.71771         8.16341        -2.28204
C         19.53881         8.91686        -2.02964
C         20.67486        11.14351        -2.12154
C         19.49993        10.36144        -1.95510
C         20.64826        12.51877        -2.01039
C         19.44904        13.21011        -1.70217
C         20.52869        15.45877        -1.84353
C         19.40669        14.64680        -1.55074
C         20.50386        16.82359        -1.61398
C         19.38371        17.44888        -1.02455
C         20.49145        19.68490        -1.03036
C         19.41567        18.85750        -0.65403
C         20.62334        20.95292        -0.47931
C         19.67450        21.46737         0.41288
C         20.65949        23.82368         0.30083
C         20.02528        22.74540         1.14290
C         20.58436        25.12747         0.65545
C         19.76147        25.59135         1.75950
C         20.91140        27.76611         1.81983
C         19.69436        27.05193         1.97389
C         20.94819        29.14533         1.77934
C         19.74996        29.90048         1.72393
C         20.98387        32.07137         1.37546
C         19.77916        31.32256         1.43100
C         20.99027        33.41904         1.06006
C         19.79835        34.11492         0.72355
C         20.90655        36.33826         0.74528
C         19.77888        35.55673         0.45346
C         20.85943        37.73563         0.65495
C         19.67591        38.37112         0.32163
O          6.49201        18.30964         3.14671
O         17.12276        18.46771         2.09004
O         13.10085        16.33134         2.43730
O         11.88039        20.89323         3.46785
O         15.03053        32.09522         1.91485
O          7.98912        27.13737        -0.70541
O         14.58468        32.92825        -2.02290
O         17.27607         4.87506        -0.74603
O         16.87362        22.88356         3.23269
O         15.21845        26.20298         0.34346
O          0.74122        28.59794         1.11276
O          3.63620        23.26562         2.46459
O         10.14149         8.98127         1.61827
O         16.37233        36.94292        -1.73622
O          7.25378        30.78888         1.74082
O         16.30464        27.79362         3.43498
O          6.04508        24.45810         2.81544
O          3.80939         6.68021         1.98461
O          5.89222        33.26831         0.71656
O          9.68517        22.37915         3.24221
O          4.64811        34.98057        -3.64156
O          8.57160        19.67275         3.38952
O         14.81491        13.02344        -2.23990
O          1.86638        36.00894        -1.30372
O         18.08145        25.07372         3.40413
O          1.89444        24.00165        -1.57165
O         11.57403        29.78873         2.22975
O          4.01624        27.61260         2.05615
O          9.73177        18.17186         0.10745
O         12.58380        34.37333        -2.39865
O          8.70776        32.13251        -2.08914
H          8.95827        32.63026        -2.89655
O          6.03888        15.08751        -0.91289
H          6.07030        14.19291        -1.31510
O         15.58420         8.13081        -3.38638
H         15.41652         9.06352        -3.64070
O         13.88219        30.68896        -1.35242
H         14.25984        31.26217        -2.08376
O          5.68446        20.72169         3.71763
H          6.29046        20.08803         4.16776
O         13.42921        36.12413         0.68506
H         14.13427        36.64398         1.12647
O          8.67965        22.90150        -0.21765
H          8.22668        23.55739        -0.78890
O          8.74307        33.02003         1.43293
H          8.40899        32.51122         2.20533
O         11.56236        10.26909        -2.09592
H         11.72199        11.20067        -2.36301
O         21.06245        22.35099         2.12076
H         20.66421        21.68321         2.71910
H          1.23305         2.45827        -0.74676
H         -0.91940         3.60338        -0.21920
H         -0.95144         5.94464         0.52847
H         -0.96148         7.80996         0.91841
H         -0.99543        10.22838         1.07624
H         -1.02401        12.13359         1.02780
H         -1.04689        14.56055         0.99303
H         -1.03626        16.46276         0.64616
H         -1.00250        18.87734         0.39802
H         -0.81725        20.63369        -0.37587
H         -0.62641        22.92545        -1.16859
H         -0.72938        24.91555        -1.11465
H         -1.04184        27.26755        -0.54090
H         -1.01046        29.27565        -0.87475
H         -0.78219        31.42169        -1.98677
H         -0.69770        33.17141        -2.65748
H         -0.66221        35.46788        -3.41832
H          0.67399        37.67424        -3.85775
H          3.69473         2.49607        -0.83148
H          2.81954        38.85973        -3.87950
H          6.14515         2.53943        -1.05211
H          5.26732        38.94991        -3.21272
H          8.58870         2.57826        -1.25059
H          7.65216        39.01691        -2.64394
H         11.02457         2.61541        -1.52912
H         10.06411        39.11646        -2.09681
H         13.44748         2.69354        -1.99438
H         12.43990        39.21793        -1.55412
H         15.68613         2.95086        -3.00514
H         14.57749        39.45289        -0.45258
H         18.54902         2.78103        -3.02085
H         17.32733        39.43403         0.28680
H         20.43103         4.24247        -2.92762
H         21.61830         6.24717        -2.65022
H         21.67313         8.68240        -2.44100
H         21.63114        10.64914        -2.33909
H         21.58534        13.07587        -2.14211
H         21.43945        15.01148        -2.26277
H         21.39996        17.41023        -1.85440
H         21.26502        19.32136        -1.71847
H         21.51320        21.54756        -0.72517
H         21.27118        23.53461        -0.56509
H         21.10108        25.88415         0.04663
H         21.85195        27.20124         1.76095
H         21.92170        29.64618         1.69558
H         21.94232        31.58732         1.60704
H         21.95577        33.94272         1.04665
H         21.83452        35.86647         1.09384
H         21.75160        38.32756         0.90126
H         19.63127        39.46982         0.32184
