         429
 CSIRO Nanostructure Databank - Neutral Graphene Oxide Data Set
C          2.00142         1.76506        -2.42601
C          1.90671         3.19487        -2.49552
C          3.00637         1.13632        -1.76705
C          2.89509         4.00876        -1.96363
C          1.68577         6.17188        -2.39066
C          1.65031         7.59226        -2.39923
C          2.80923         5.47020        -1.94782
C          2.67034         8.36455        -1.87934
C          1.39068        10.47676        -1.97212
C          1.29800        11.83911        -1.73550
C          2.61736         9.81290        -1.78759
C          2.44334        12.59404        -1.43016
C          1.26835        14.89130        -1.13719
C          1.45057        16.23964        -0.62873
C          2.24853        13.95521        -0.95049
C          2.65285        16.91407        -0.65336
C          2.78398        18.25061        -0.13313
C          4.11050         1.88684        -1.07108
C          4.05125         3.38958        -1.34761
C          5.48070         1.34726        -1.55165
C          5.13491         4.17054        -1.02102
C          3.94691         6.23487        -1.51798
C          3.81024         7.69281        -1.17537
C          5.14538         5.59846        -1.22144
C          5.10353         8.47376        -1.20233
C          3.80043        10.56500        -1.50928
C          3.74059        11.97289        -1.42157
C          5.08091         9.85646        -1.30298
C          5.05947        12.70002        -1.75107
C          4.20889        14.93989        -0.93839
C          3.81681        16.32385        -1.42412
C          5.16179        14.20121        -1.54060
C          5.08310        17.15861        -1.50739
C          3.94451        18.97106        -0.20320
C          5.15067        18.45430        -0.80735
C          6.54867         1.25214        -0.78394
C          6.29147         3.67946        -0.22262
C          7.57231         1.01282         0.03229
C          7.63437         4.03738        -0.76488
C          6.36907         6.34554        -1.02844
C          6.34309         7.74801        -1.00731
C          7.65327         5.59608        -1.08724
C          7.55439         8.50345        -0.79464
C          6.30861        10.62093        -1.11841
C          6.31678        12.01349        -1.26163
C          7.52860         9.92131        -0.80128
C          7.53380        12.78049        -1.13117
C          6.40980        14.89434        -2.07586
C          6.38081        16.41373        -1.79060
C          7.61094        14.18316        -1.44273
C          7.61713        17.10155        -1.41691
C          6.35724        19.11288        -0.74583
C          7.60145        18.46432        -1.09050
C          8.70037         1.91210         0.32935
C          8.79434         3.24273        -0.27672
C          9.81154         1.36132         0.93544
C         10.07378         3.70361        -0.48952
C          8.87118         6.40329        -0.85340
C          8.78238         7.80784        -0.59257
C         10.14281         5.83892        -0.85466
C          9.97280         8.53778        -0.28880
C          8.72495        10.66052        -0.53107
C          8.71635        12.10341        -0.68449
C          9.91295         9.95079        -0.21281
C          9.90785        12.84937        -0.48800
C          8.80801        14.89461        -1.26817
C          8.90493        16.36612        -1.65819
C          9.95650        14.22479        -0.78241
C         10.10114        17.11580        -1.10232
C          8.82156        19.20307        -0.95615
C         10.07770        18.57614        -0.98774
C         11.03903         2.12629         1.22517
C         11.20508         3.41084         0.37797
C         12.17993         1.43058         1.90208
C         12.44744         4.24882         0.22758
C         11.27129         6.44404        -0.23195
C         11.20792         7.83712        -0.02677
C         12.43594         5.67501         0.15382
C         12.42467         8.53136         0.29492
C         11.13974        10.67305         0.16592
C         11.11625        12.16496         0.04036
C         12.44379         9.95541         0.23137
C         12.43604        12.81108        -0.23775
C         11.18267        15.00616        -0.46772
C         11.24141        16.44524        -0.79219
C         12.45152        14.29034        -0.13304
C         12.53249        17.16183        -0.68460
C         11.26701        19.29030        -0.70821
C         12.53432        18.64824        -0.57228
C         13.47307         1.59965         1.49882
C         13.65566         3.61171         0.50150
C         14.73623         1.26909         2.08840
C         14.79672         4.24754         1.05584
C         13.61767         6.36930         0.55008
C         13.61872         7.81425         0.55239
C         14.75094         5.66079         1.04252
C         14.82451         8.53684         0.83292
C         13.66513        10.63061         0.26691
C         13.71621        12.05638        -0.13418
C         14.87286         9.94383         0.61287
C         15.04703        12.80348        -0.10768
C         13.75866        14.96775        -0.10020
C         13.77643        16.42796        -0.31980
C         14.92224        14.29616         0.17408
C         14.88030        17.23078         0.33038
C         13.73129        19.31885        -0.38818
C         15.06766        18.59297        -0.36428
C         15.90058         2.03605         1.86384
C         15.93836         3.49017         1.58262
C         17.13361         1.38774         2.12413
C         17.09558         4.18697         1.94475
C         15.83944         6.42452         1.67719
C         15.97279         7.86327         1.34849
C         17.04120         5.64683         2.17599
C         17.16697         8.56007         1.55578
C         16.09876        10.65479         0.82074
C         16.13240        12.09809         0.67340
C         17.24592         9.96016         1.28490
C         17.26440        12.80746         0.97279
C         16.11705        15.04464         0.51185
C         16.15317        16.43676         0.51696
C         17.24788        14.28497         1.07856
C         17.33097        17.17872         0.85221
C         16.20776        19.32554         0.29853
C         17.32234        18.62821         0.76047
C         18.37103         2.05191         2.10432
C         18.37268         3.51494         2.14090
C         19.57824         1.34066         2.09391
C         19.55235         4.19075         2.34907
C         18.30298         6.41994         2.47032
C         18.35457         7.88674         2.14020
C         19.60287         5.65411         2.72190
C         19.67656         8.56414         2.05516
C         18.50465        10.65313         1.46141
C         18.53721        12.09677         1.17678
C         19.68750         9.99053         1.80502
C         19.79851        12.87869         1.49990
C         18.46704        15.04870         1.51191
C         18.50513        16.51232         1.28952
C         19.76189        14.34892         1.70557
C         19.66453        17.22415         1.62736
C         18.52350        19.32202         1.13550
C         19.66277        18.64464         1.53726
C         20.82828         2.01187         2.02090
C         20.89290         3.48177         2.39811
C         21.97524         1.32808         1.68349
C         21.84244         4.28320         1.44144
C         20.85562         6.39841         2.25540
C         20.84094         7.85695         2.29036
C         21.99974         5.71312         1.94016
C         22.12544         8.58195         2.41267
C         20.93375        10.72601         1.95956
C         20.94152        12.11493         1.99505
C         22.17219        10.02303         2.17246
C         22.17636        12.82927         2.34946
C         20.87900        15.04324         2.03596
C         20.85212        16.53656         2.27828
C         22.16173        14.34367         2.31917
C         22.15927        17.19425         1.88451
C         20.90508        19.39364         1.96356
C         22.16933        18.59263         1.72460
C         23.20862         2.03313         1.31325
C         23.15548         3.52074         1.15481
C         24.49520         1.32797         1.23001
C         24.46475         4.27499         1.10233
C         23.37130         6.29361         2.23411
C         23.43193         7.81422         2.36004
C         24.51583         5.72845         1.42381
C         24.66117         8.54709         1.99248
C         23.41199        10.68823         2.12314
C         23.44718        12.12200         2.12514
C         24.65711         9.95513         1.99327
C         24.63382        12.84430         1.95191
C         23.41602        15.02890         1.98584
C         23.36599        16.44938         1.76118
C         24.61275        14.29593         1.86573
C         24.58318        17.13493         1.48406
C         23.35948        19.26031         1.42348
C         24.57759        18.55545         1.30896
C         25.68342         2.01575         1.02784
C         25.73059         3.47958         1.40186
C         26.88344         1.37012         0.66095
C         26.97730         4.20752         0.97906
C         25.82363         6.41010         1.59535
C         25.86852         7.80701         1.71198
C         27.04337         5.62302         1.38734
C         27.09317         8.54709         1.47428
C         25.87136        10.69395         1.76406
C         25.87025        12.12218         1.74483
C         27.08842         9.97771         1.50704
C         27.07512        12.84090         1.50286
C         25.83628        14.99377         1.57752
C         25.81255        16.41042         1.41525
C         27.06270        14.27825         1.43627
C         27.03215        17.11817         1.20097
C         25.79723        19.23647         1.04016
C         27.01279        18.55458         0.99137
C         28.07065         2.08566         0.33827
C         28.08588         3.55021         0.49205
C         29.21040         1.39915        -0.06575
C         29.27846         4.30344         0.13161
C         28.32341         6.39213         1.06999
C         28.27197         7.86962         1.05354
C         29.35906         5.66392         0.32749
C         29.42704         8.58500         0.71209
C         28.29320        10.69931         1.25194
C         28.30240        12.13204         1.27534
C         29.49089         9.99438         0.90043
C         29.51208        12.83283         1.03215
C         28.27557        14.99892         1.22519
C         28.24701        16.40975         1.15342
C         29.53216        14.27483         1.03154
C         29.54647        17.17819         1.18797
C         28.22350        19.24138         0.66272
C         29.45848        18.59759         0.64965
C         30.38300         2.08442        -0.61356
C         30.40047         3.61621        -0.55124
C         31.67189         1.40113        -0.73614
C         31.71532         4.28667        -0.57996
C         30.51491         6.42776        -0.19129
C         30.57700         7.90941         0.07655
C         31.78094         5.69166        -0.38866
C         31.88790         8.56068         0.11853
C         30.72463        10.67959         0.73165
C         30.74877        12.11170         0.82091
C         31.95287         9.95760         0.43400
C         31.95711        12.78986         0.64194
C         30.70703        14.95722         0.74458
C         30.65074        16.43195         0.44849
C         31.96256        14.25113         0.31050
C         31.94862        17.18544         0.64512
C         30.64048        19.24949         0.23365
C         31.90313        18.60410         0.21740
C         32.84679         2.09579        -0.95552
C         32.88015         3.54848        -0.85704
C         34.08761         1.40106        -1.19538
C         34.12450         4.23560        -0.95623
C         32.99917         6.38414        -0.44769
C         33.06959         7.82236        -0.18502
C         34.19129         5.64245        -0.73210
C         34.31635         8.45343        -0.11012
C         33.18167        10.61849         0.43179
C         33.26770        12.06497         0.82494
C         34.47954         9.86065         0.40409
C         34.44666        12.78780         0.19645
C         33.28213        14.90748         0.85183
C         33.26242        16.43372         0.65726
C         34.44767        14.18829         0.19195
C         34.36689        17.13471         0.00054
C         33.10728        19.25459        -0.05628
C         34.32863        18.52734        -0.21265
C         35.27356         2.07313        -1.40611
C         35.31393         3.52514        -1.30031
C         36.51699         1.36766        -1.64110
C         36.50902         4.22176        -1.52039
C         35.45274         6.29144        -0.77818
C         35.54124         7.68761        -0.33475
C         36.59923         5.61309        -1.24053
C         36.81820         8.45437        -0.63437
C         35.58182        10.61887        -0.32128
C         35.54354        12.06461        -0.36305
C         36.72867         9.92874        -0.77474
C         36.65150        12.78495        -0.88885
C         35.52628        14.89155        -0.38132
C         35.42933        16.34065        -0.60356
C         36.66151        14.19734        -0.88094
C         36.69110        17.09130        -1.04155
C         35.53765        19.21953        -0.59365
C         36.71716        18.55385        -0.85514
C         37.67882         2.03132        -1.93570
C         37.63413         3.51394        -2.22632
C         38.93140         1.34391        -2.14694
C         38.96134         4.21027        -2.10541
C         37.83660         6.33625        -1.48800
C         37.90767         7.72322        -1.30585
C         39.00627         5.61602        -1.93225
C         39.07239         8.45701        -1.68458
C         37.85169        10.59886        -1.30710
C         37.76057        12.07025        -1.62209
C         39.04948         9.89465        -1.64116
C         39.09323        12.78805        -1.54512
C         37.89089        14.93819        -1.18117
C         37.93054        16.31292        -1.10308
C         39.13340        14.18871        -1.39856
C         39.22601        17.06071        -0.90296
C         37.96661        19.22468        -1.10035
C         39.14297        18.53144        -1.26406
C         40.08657         2.02803        -2.37945
C         40.13740         3.47822        -2.33144
C         41.36765         4.17209        -2.45220
C         40.23474         6.30978        -2.13249
C         40.24413         7.75717        -2.08646
C         41.40513         5.55345        -2.39697
C         41.38992         8.50994        -2.43729
C         40.23978        10.61234        -1.95934
C         40.28155        12.06094        -1.80034
C         41.38303         9.89358        -2.37025
C         41.50703        12.76021        -1.86158
C         40.36886        14.88651        -1.53980
C         40.41316        16.34249        -1.49477
C         41.54546        14.14017        -1.75423
C         41.51104        17.07016        -1.88361
C         40.35966        19.20858        -1.62294
C         41.50047        18.50433        -1.89841
O          5.65240        17.16307        -2.86235
O         24.39361         5.26641         0.02987
O         30.20864         7.37057        -1.27619
O         11.58934        14.78361         0.95517
O         17.46304        14.65894         2.52221
O         10.75981         3.44983         1.80010
O         10.96583        11.56260         1.35409
O         30.04801         2.93888        -1.78992
O         36.57188         7.93053         0.72758
O         13.65837         2.24447         0.25090
O         10.32647         4.61807        -1.51876
O         18.08919         7.40883         3.52569
O          7.65042         4.55286        -2.11734
O         13.49246        16.70364        -1.74684
O         19.48738        12.49187         0.10077
O         32.70258        17.04941         1.87709
O         22.87054         8.22392         3.65232
O          3.29383        14.32663        -0.07796
O         15.97571         6.05402         3.09429
O         13.05222        12.28300        -1.45546
O         35.68411        16.68158        -2.01942
O         22.13923        13.62153         3.59984
O          6.13786         3.25675         0.92621
O         28.08269         5.85211         2.41410
O         22.99763         2.73980        -0.07296
O         15.49996        18.41216        -1.73942
H         14.81451        17.85297        -2.18465
O         30.37907        16.54064        -0.99108
H         29.46531        16.21678        -1.14572
O         37.30074         3.61251        -3.66416
H         36.45161         3.13899        -3.79764
O         15.57375        12.76632        -1.46863
H         14.79592        12.79099        -2.07472
O         20.97355        20.67319         1.33286
H         20.99649        20.53895         0.36349
O         29.94548        17.25462         2.58011
H         29.25123        17.74373         3.06841
O         21.12901         4.41346         0.18898
H         21.55303         3.78055        -0.44261
O          3.42146         7.68282         0.26182
H          2.59621         7.15647         0.33291
O          5.07244        12.52597        -3.21091
H          5.71349        13.18303        -3.58714
O          6.54901        14.73942        -3.51131
H          6.19412        15.55718        -3.92796
O         14.42306        17.54847         1.67657
H         14.43736        16.72783         2.21296
O         21.43666         3.51632         3.73166
H         21.05036         4.29106         4.20633
O         33.38180        14.64792         2.25494
H         32.94779        15.39761         2.72549
O          9.11523        16.36990        -3.11231
H          9.08818        17.30324        -3.41206
O          3.32186        16.10681        -2.77481
H          4.04176        16.38679        -3.38898
O         20.70811        16.73794         3.71868
H         19.95410        16.19141         4.02631
O         33.49032        12.01416         2.27862
H         34.14380        11.28807         2.44320
O         19.78795         5.63937         4.17877
H         19.33355         6.44900         4.52264
O         25.76117         3.48520         2.86889
H         26.63411         3.14819         3.16089
O         37.37731        12.12100        -3.05273
H         37.20149        13.06130        -3.27273
O         32.04434        14.35372        -1.15438
H         31.52123        15.14808        -1.43071
O         34.91484         9.73912         1.82856
H         35.68659         9.11363         1.81672
O         23.65122         5.76274         3.56471
H         23.22844         6.37818         4.20894
O         39.43877        17.04009         0.55952
H         40.28658        17.50235         0.73255
O          3.96345         1.65488         0.33703
H          4.68903         2.14229         0.80405
H          1.20336         1.17298        -2.89806
H          1.02201         3.63228        -2.97851
H          3.01236         0.03967        -1.68567
H          0.81209         5.63142        -2.77974
H          0.76902         8.07184        -2.84867
H          0.48159         9.90964        -2.21075
H          0.31877        12.33797        -1.75940
H          0.33802        14.64265        -1.66889
H          0.55823        16.77553        -0.26116
H          1.90544        18.69604         0.35811
H          5.56671         1.11319        -2.62889
H          3.98866        19.97604         0.24112
H          7.63930         0.00544         0.48337
H          6.40649        20.11437        -0.29268
H          9.79704         0.29594         1.20897
H          8.76228        20.28017        -0.74257
H         11.95695         0.90886         2.84395
H         11.20754        20.38144        -0.57878
H         14.84024         0.33876         2.66844
H         13.73003        20.42039        -0.38028
H         17.12622         0.29764         2.27368
H         16.25434        20.42330         0.22312
H         19.55362         0.24414         1.99982
H         18.54238        20.42110         1.08681
H         21.93201         0.24005         1.51617
H         20.83068        19.58594         3.06922
H         24.47274         0.23219         1.12302
H         23.34818        20.35397         1.30819
H         26.86995         0.28168         0.49784
H         25.77793        20.32436         0.87910
H         29.21425         0.29896        -0.03557
H         28.16127        20.30093         0.37037
H         31.69394         0.30353        -0.65711
H         30.58050        20.30573        -0.07230
H         34.06965         0.30176        -1.24125
H         33.10530        20.33275        -0.27561
H         36.51732         0.27003        -1.55239
H         35.52866        20.31988        -0.57629
H         38.93687         0.24432        -2.10281
H         37.96185        20.32177        -1.19810
H         41.02753         1.48267        -2.54404
H         42.29243         3.60286        -2.62473
H         42.36813         6.06310        -2.53574
H         42.30437         8.00200        -2.77093
H         42.29671        10.43102        -2.65592
H         42.45063        12.21862        -2.00631
H         42.51597        14.64959        -1.82259
H         42.41815        16.56581        -2.24548
H         40.34077        20.30315        -1.73122
H         42.41452        19.03255        -2.20279
