         272
 CSIRO Nanostructure Databank - Neutral Graphene Oxide Data Set
C        -11.01509         0.50036         0.14632
C        -10.01578         1.44890         0.78465
C         -8.61199         0.81673         0.69592
C         -7.52083         1.50708        -0.08464
C         -6.19955         0.80395        -0.30884
C         -4.94681         1.56369        -0.66533
C         -3.66551         0.77358        -0.32936
C         -2.35819         1.56883        -0.52671
C         -1.13422         0.90679        -1.14853
C          0.18154         1.66176        -1.05144
C          1.46820         0.84762        -0.99109
C          2.63743         1.41973        -0.24136
C          3.81258         0.73749        -0.11368
C          5.08683         1.43758         0.36403
C          6.40165         0.70830         0.07292
C          7.66502         1.44856        -0.27614
C          8.79849         0.60273        -0.74008
C         10.38615         1.63708         0.40709
C         11.07869         0.69800         1.30296
C        -10.10077         2.90095         0.20266
C         -8.79509         3.68470         0.25285
C         -7.58292         3.00146        -0.26609
C         -6.30932         3.78893        -0.52629
C         -4.98577         3.07482        -0.71014
C         -3.68123         3.90606        -0.57960
C         -2.39123         3.06996        -0.44277
C         -1.09304         3.84844        -0.49919
C          0.17499         3.04189        -0.44829
C          1.29690         3.59080         0.08775
C          2.55704         2.83171         0.21695
C          3.86349         3.57021         0.35232
C          5.03627         2.85940        -0.32853
C          6.35776         3.66292        -0.46594
C          7.68376         2.94642        -0.46885
C          9.04999         3.65825        -0.20584
C          9.90907         2.86137         0.77015
C         -8.76816         5.01755         0.49933
C         -7.56106         5.82570         0.42464
C         -6.24731         5.29929        -0.15868
C         -5.06838         5.63015         0.81684
C         -3.76559         4.94309         0.55454
C         -2.46146         5.65183         0.86820
C         -1.16578         5.12592         0.29743
C          0.06724         5.69989         0.94121
C          1.33346         4.95186         0.71731
C          2.59704         5.74433         0.50239
C          3.91075         5.04060         0.59420
C          5.17849         5.79616         0.45093
C          6.36729         5.17211        -0.27347
C          7.70029         5.80116         0.03542
C          8.88234         5.15102         0.07979
C         -7.59292         7.11545         0.83899
C         -6.33406         7.87396         1.05959
C         -5.06867         7.08487         1.26850
C         -3.76944         7.85666         1.24489
C         -2.46584         7.11046         1.22419
C         -1.21722         8.00830         1.17552
C          0.09713         7.20242         1.14682
C          1.32922         7.96917         0.79509
C          2.58357         7.22929         0.42849
C          3.83984         8.07737         0.62368
C          5.15313         7.30891         0.43040
C          6.33477         7.97932        -0.17657
C          7.29582         6.99096        -0.82476
C         -6.24637         9.26183         0.55210
C         -5.08041         9.86707         0.25260
C         -3.76884         9.29171         0.62155
C         -2.56715         9.74751        -0.03820
C         -1.27609         8.96728        -0.02067
C         -0.01292         9.81786        -0.11443
C          1.20300         9.35970         0.25543
C          2.48479        10.17728         0.05243
C          3.69424         9.27600        -0.36342
C          4.99796        10.03237        -0.53977
C          6.18807         9.40797        -0.57797
C        -10.93798        -0.82728         0.31708
C         -9.82963        -1.49347         1.12083
C         -8.51727        -0.66301         0.91136
C         -7.25116        -1.39569         0.54877
C         -6.02623        -0.62668         0.13542
C         -4.90105        -1.40678        -0.49668
C         -3.68834        -0.64740        -0.90423
C         -2.41497        -1.38770        -1.21382
C         -1.16236        -0.59213        -1.46286
C          0.15639        -1.31997        -1.83985
C          1.43283        -0.65176        -1.22460
C          2.50539        -1.36622        -0.35723
C          3.85146        -0.68256        -0.55903
C          5.12586        -1.46997        -0.54746
C          6.36607        -0.80846        -0.02091
C          7.66741        -1.54970        -0.12711
C          8.81901        -0.73615        -0.54886
C         10.41542        -1.70638         0.60961
C         11.10756        -0.66923         1.38371
C         -9.61638        -2.93553         0.72512
C         -8.55247        -3.70118         1.27307
C         -7.28170        -2.79675         0.03395
C         -6.03173        -3.59278         0.18173
C         -4.76517        -2.85493        -0.17054
C         -3.59687        -3.57923        -0.68945
C         -2.40068        -2.87430        -1.00391
C         -1.19238        -3.57509        -1.09840
C         -0.02881        -2.90196        -1.78036
C          1.36509        -3.61161         0.03599
C          2.55327        -2.87606        -0.51523
C          3.82723        -3.66739        -0.65626
C          5.21026        -3.00097        -0.80302
C          6.33896        -3.66413        -0.01010
C          7.71069        -3.05422        -0.17398
C          8.89694        -3.73882         0.47536
C          9.95207        -2.88534         1.11572
C         -8.33845        -5.16104         0.96435
C         -7.30030        -5.76355         0.33830
C         -6.15468        -5.01733        -0.24669
C         -4.96914        -5.69801        -0.86361
C         -3.63496        -5.00180        -0.79343
C         -2.41915        -5.69387        -0.80427
C         -1.17124        -4.97969        -0.72828
C         -0.01686        -5.69047        -0.28645
C          1.25803        -5.07067        -0.18584
C          2.46037        -5.79268        -0.07219
C          3.76417        -5.13526        -0.32801
C          5.00208        -5.85233         0.07767
C          6.24837        -5.09183         0.39769
C          7.48096        -5.89255         0.63623
C          8.68987        -5.11321         1.13690
C         -7.24133        -7.27825         0.25168
C         -5.79829        -7.87058         0.16821
C         -5.07347        -7.23906        -1.07333
C         -3.68098        -7.74020        -1.59256
C         -2.39511        -7.17778        -0.95960
C         -1.22268        -7.94480        -0.38784
C         -0.19601        -7.06454         0.34974
C          1.14085        -7.80350         0.58743
C          2.44544        -7.17943         0.27547
C          3.61458        -7.91517         0.49300
C          4.93841        -7.22074         0.70327
C          6.16950        -8.01291         0.18578
C          7.43371        -7.24320         0.57324
C         -5.98740        -9.38009         0.15153
C         -5.02669       -10.28937        -0.06235
C         -3.67731        -9.84208        -0.44912
C         -2.57054       -10.03903         0.30312
C         -1.28254        -9.37195         0.10129
C         -0.16835        -9.98768         0.57733
C          1.13720        -9.30929         0.71536
C          2.40513       -10.03686         0.60631
C          3.59865        -9.34479         0.66646
C          4.88324       -10.03332         0.85451
C          6.08018        -9.42593         0.72151
O          6.23635         7.82309         1.28545
O         -1.25682        -7.66082        -1.80566
O         -4.59478         4.58789         1.70793
O          1.97992         0.24921        -2.21459
O          4.78152         5.29560         1.75628
O         -0.79395        -6.79825         1.64661
H         -0.24878        -7.27513         2.31862
O          7.05827         3.33483        -1.72281
O          3.21555         2.98281         1.51148
O          6.13294        -8.14845        -1.24907
H          5.80843        -7.31187        -1.65182
O        -10.37347         1.50557         2.18803
H         -9.60173         1.84049         2.69303
O          0.56457        -3.04367         0.79223
O         -4.67415        -1.07652        -1.88955
O         -1.07408         5.12682        -1.16690
O         -3.62041        -9.18360        -1.67356
O         -5.10570        -7.49575         1.37509
H         -4.40568        -8.15432         1.56718
O         -6.21465        -1.03612         1.50555
O          4.62259        -0.84394        -1.77982
O          7.37012         1.10436         1.11782
O          2.99060        -3.36537        -1.80869
O         -3.71789         9.00246         2.08490
O          4.58468         2.66318        -1.68587
H          5.36727         2.68119        -2.28397
O          0.98684         7.68904         2.19170
O         -5.85671         7.51371         2.41545
O          1.14860        -8.41281         1.92493
O         -5.98198        -5.04033        -1.71576
O         10.05161        -1.38374        -0.72100
O         -2.35814         6.07552         2.25211
O          0.68664         4.95907         2.03036
O         -2.07228        -0.91980        -2.56883
O          5.01778         1.52628         1.78743
H          5.92875         1.48880         2.15529
O         -0.58191         1.63392        -2.28698
O         -8.21832         0.28020         1.98852
O          3.82074         8.56501         1.97473
H          4.74928         8.54466         2.30624
O          6.02330        -4.00179         1.37394
O         -5.11287        -3.24719         1.21951
O         -5.76752         0.97863        -1.68873
O          8.71201        -3.71429        -0.97467
O          0.64970        -3.57398        -2.53652
O          4.61086        -5.87339        -1.32190
O         -3.63514        -7.29996        -2.94370
H         -2.75030        -7.53893        -3.29949
O         -5.88633         6.03631        -1.29632
O          2.51985         6.45860        -0.79531
O          6.42146         6.00662        -1.54833
O         -2.16034         2.25973         0.76380
O         10.06662         1.20782        -0.90997
O          6.99884        -1.30381         1.19188
O         -7.98907         2.07828        -1.34062
O         -5.77454         3.52875        -1.84113
O         -7.90065        -7.84596         1.38178
H         -7.32389        -7.69270         2.16084
O          0.33332        -1.10380        -3.24658
H         -0.53774        -1.22039        -3.68554
O         -3.76406         0.47088         1.08905
H         -3.33645         1.20467         1.59529
O         -1.21080         8.82884         2.34077
H         -1.09859         8.25187         3.12498
O         -8.08804        -3.35964         2.50645
H         -8.54167        -2.53908         2.81967
O          2.21476        -1.07580         1.02719
H          1.44177        -1.62623         1.31363
O         -3.54586         4.66624        -1.78141
H         -4.42174         5.14380        -1.91660
O          5.09004        -7.04229         2.13184
H          4.99441        -7.91870         2.56074
O         -1.33682         8.11997        -1.20527
H         -1.21108         8.66871        -2.00756
O        -10.55458         2.85717        -1.15216
H         -9.77851         2.63698        -1.71945
O          5.61645        -3.16894        -2.16594
H          4.89200        -2.81784        -2.73297
O          3.39260         8.71512        -1.65950
H          3.52232         9.40564        -2.34133
O         -7.77996        -2.88324        -1.24282
H         -7.38251        -3.64706        -1.72364
O        -10.12479        -1.42805         2.53002
H        -10.22612        -0.46764         2.74779
O          9.72821         3.68502        -1.47710
H          9.05522         3.88498        -2.16455
O         -5.99625        -7.49671        -2.13842
H         -5.52578        -7.29992        -2.98170
O          2.79232        10.91843         1.22805
H          2.99226        10.26436         1.94044
O          8.50291        -4.89776         2.54427
H          7.61352        -4.49110         2.66123
H         11.63355        -1.06647         2.26910
H         11.59070         1.21196         2.13519
H         10.08807         3.25839         1.77910
H          9.80933         5.73754        -0.03031
H          8.06585         7.44774        -1.48713
H          7.10529         9.97333        -0.80752
H          4.93895        11.10625        -0.77859
H          2.30520        10.92100        -0.76973
H         -0.10595        10.82018        -0.56400
H         -2.71054        10.43257        -0.89169
H         -5.08136        10.84876        -0.24454
H         -7.19226         9.74258         0.26069
H         -8.52903         7.56467         1.20894
H         -9.69088         5.52655         0.82199
H        -10.87841         3.44702         0.79332
H        -11.83828         0.93943        -0.43683
H        -11.70775        -1.47957        -0.12314
H        -10.02401        -3.25480        -0.24632
H         -9.09915        -5.83147         1.40397
H         -7.79583        -7.60792        -0.66303
H         -6.98929        -9.72724         0.45198
H         -5.23696       -11.36379         0.06141
H         -2.65142       -10.69470         1.18332
H         -0.25095       -11.01495         0.96551
H          2.39082       -11.13603         0.57784
H          4.83870       -11.09355         1.14824
H          7.00871        -9.99568         0.88039
H          8.35197        -7.82328         0.76126
H          9.61650        -5.72858         1.01403
H         10.20522        -3.16518         2.14960
