         279
 CSIRO Nanostructure Databank - Neutral Graphene Oxide Data Set
C        -10.86531         0.59043         1.38696
C         -9.87573         1.50133         0.69681
C         -8.74823         0.72072        -0.00916
C         -7.63184         1.52367        -0.61807
C         -6.27819         0.82699        -0.80667
C         -5.26651         1.59379        -1.68157
C         -3.92141         0.85737        -1.55301
C         -2.64967         1.57688        -1.30000
C         -1.52360         0.81030        -0.59106
C         -0.18200         1.55116        -0.61538
C          1.05751         0.81057        -0.26758
C          2.37425         1.42338        -0.59428
C          3.57071         0.78168        -0.20601
C          4.81564         1.40355        -0.44084
C          6.09745         0.75483         0.02003
C          7.25345         1.13570        -0.97549
C          8.63728         0.47171        -0.81527
C          9.79505         1.21009        -0.22485
C         11.00884         0.47247         0.16595
C         -9.18752         2.55619         1.56557
C         -8.16467         3.28292         1.06991
C         -7.68531         3.05442        -0.36809
C         -6.38980         3.81359        -0.70138
C         -5.18099         3.10448        -1.27343
C         -3.84467         3.75198        -1.05526
C         -2.68987         3.03202        -1.07819
C         -1.36020         3.67439        -0.80454
C         -0.19044         2.83923        -1.40215
C          1.18774         3.59293        -1.41296
C          2.40068         2.77167        -0.98202
C          3.63291         3.44953        -1.04954
C          4.84352         2.74543        -0.88606
C          6.09592         3.44579        -1.38763
C          7.37031         2.66205        -1.08672
C          8.58638         3.35096        -0.56472
C          9.71803         2.55397        -0.04132
C         -7.45539         4.34976         1.88462
C         -7.25510         5.60633         0.99911
C         -6.25832         5.21206        -0.09919
C         -4.92798         5.89917        -0.20989
C         -3.76799         5.20462        -0.84306
C         -2.58510         5.87733        -1.03599
C         -1.32243         5.12444        -1.20947
C         -0.00330         5.77618        -0.92925
C          1.19574         4.89302        -0.52448
C          2.49320         5.62443        -0.80001
C          3.64453         4.91806        -1.10248
C          4.90245         5.62720        -1.17752
C          6.14996         4.94202        -1.02973
C          7.30360         5.58212        -0.53163
C          8.52508         4.78857        -0.11080
C         -6.84743         6.82442         1.79951
C         -5.63710         7.43828         1.73517
C         -4.54713         6.78578         0.95062
C         -3.37289         8.14621        -2.07328
C         -2.44203         7.35646        -1.17123
C         -1.28613         7.97231        -0.41898
C         -0.02669         7.16299        -0.35327
C          1.28825         7.83093        -0.11063
C          2.55447         7.04273        -0.40223
C          3.76507         7.80069        -0.73080
C          4.82539         7.05179        -1.24520
C          6.60155         7.98288        -0.59751
C          7.38379         6.95084        -0.10791
C         -5.25402         8.55476         2.61498
C         -4.19470         9.38704         2.43721
C         -3.40387         9.49000         1.19937
C         -2.05727         9.70636         1.13514
C         -1.25844         9.49992        -0.16233
C          0.16199        10.04238        -0.09252
C          1.32923         9.31444        -0.16965
C          2.63693         9.91775        -0.17446
C          3.82659         9.21009        -0.40864
C          5.08917         9.87270        -0.12380
C          6.32761         9.28646        -0.04248
C        -10.80784        -0.74667         1.40172
C         -9.53282        -1.51424         1.17179
C         -8.48954        -0.72489         0.36715
C         -7.44457        -1.44795        -0.43168
C         -6.53418        -0.65058        -1.38121
C         -5.19819        -1.39522        -1.53455
C         -3.90832        -0.66428        -1.45470
C         -2.74510        -1.37839        -0.73712
C         -1.43533        -0.65355        -1.17400
C         -0.05271        -1.40156        -0.91303
C          0.89660        -0.67591         0.07625
C          2.26160        -1.36622         0.09662
C          3.45431        -0.53028         0.49719
C          4.66503        -1.17827         1.10559
C          6.01549        -0.45973         0.93879
C          7.24296        -1.26673         1.30464
C          8.61267        -0.63197         1.38316
C          9.79258        -1.48631         1.04055
C         11.02308        -0.76571         0.71199
C         -9.65271        -2.94662         0.72003
C         -8.61489        -3.61813         0.07279
C         -7.56937        -2.91462        -0.58559
C         -6.51110        -3.65496        -1.27235
C         -5.22665        -2.90631        -1.55618
C         -3.94809        -3.66785        -1.29150
C         -2.70697        -2.90335        -0.92683
C         -1.37299        -3.57070        -0.79489
C         -0.23420        -2.87323        -0.53293
C          0.86177        -3.55997         0.29079
C          2.22585        -2.84272         0.26019
C          3.38138        -3.51153         0.94753
C          4.60351        -2.70377         1.32133
C          5.89685        -3.47324         1.53560
C          7.21308        -2.74529         1.47295
C          8.41705        -3.59756         1.06470
C          9.71635        -2.84064         1.03028
C         -8.60744        -5.08432         0.03201
C         -7.60144        -5.82320        -0.50242
C         -6.46969        -5.16352        -1.20076
C         -5.16987        -5.90034        -1.47140
C         -3.84228        -5.11063        -1.77856
C         -2.53969        -5.81915        -1.25225
C         -1.45301        -5.05483        -0.46487
C         -0.10352        -5.76216        -0.39769
C          0.99474        -5.05251         0.01499
C          2.12831        -5.74223         0.76664
C          3.49027        -5.00083         0.61249
C          4.62568        -5.71984         1.33628
C          5.91867        -4.97128         1.53120
C          7.20446        -5.72788         1.50381
C          8.44820        -4.93016         1.86276
C         -7.70367        -7.33879        -0.54409
C         -6.35817        -8.06737        -0.63928
C         -5.10507        -7.36193        -1.07625
C         -3.81789        -7.94231        -0.50215
C         -2.52836        -7.28765        -0.94595
C         -1.29994        -7.92310        -0.38790
C         -0.11350        -7.21625        -0.30345
C          1.12863        -7.91287         0.01239
C          2.24543        -7.21264         0.40509
C          3.40294        -8.02613         0.95082
C          4.67251        -7.20433         1.22863
C          6.01196        -7.79920         0.79723
C          7.21655        -7.06664         1.33472
C         -6.18993        -9.32935         0.13680
C         -5.02885       -10.00396         0.14667
C         -3.80966        -9.49078        -0.59766
C         -2.50998       -10.05841        -0.09547
C         -1.33464        -9.34954        -0.11135
C         -0.06734       -10.03318         0.06427
C          1.12383        -9.37350         0.02651
C          2.41412       -10.17471         0.09605
C          3.65849        -9.27000         0.06782
C          4.90160        -9.98299         0.57037
C          5.99630        -9.30072         0.94080
O         -2.19027        -6.79399        -2.28737
O          5.91720         7.72735        -1.80623
O         -6.16813        -5.74277        -2.50775
O         -1.24240         3.68301         0.65297
H         -1.94490         4.26436         1.01696
O          8.42221         3.10984        -2.00853
O          8.75502        -0.67337        -1.25630
O          7.25902        -1.90175         2.65919
O         -4.39587        -1.11563        -2.74548
O         -7.18514        -0.60179        -2.63853
H         -6.60138        -0.10600        -3.26096
O         -3.39149         6.82590         1.34307
O          0.38824         1.67910         0.72022
O          3.59909        -3.10319         2.30804
O         -8.51698         5.94445         0.39703
H         -8.72907         5.28027        -0.30418
O         -5.84426        -8.20238        -2.01473
O          8.16624        -3.98281        -0.32035
H          8.44351        -3.24486        -0.90611
O         -1.89213        -5.16676         0.92957
H         -1.23010        -4.62485         1.45038
O          3.71214        -0.45831         1.93749
O         -2.34934         7.70144        -2.65614
O          5.85337        -4.20954         2.79979
O         -5.65516         1.54002        -3.05570
H         -4.83871         1.67252        -3.59013
O         -0.93999         7.23348         0.78714
O          9.38197         5.83479         1.82074
H          9.30028         5.74033         2.80128
O          2.41487       -11.00152         1.26248
H          2.46614       -10.39336         2.03696
O          2.58373        -2.25498        -1.01999
O          4.48480        -6.56356         2.52204
O          0.35383        -3.61121         1.62308
O          2.05907         7.28330         0.98243
O         -0.44649         5.58842        -2.28950
O          1.20145         4.61861         0.86332
H          0.36222         4.14819         1.11004
O          1.77516        -5.72217         2.16660
H          1.23787        -4.88329         2.31151
O         -1.54393        -0.60271        -2.60489
H         -1.15543         0.23570        -2.94268
O          1.44505         4.02510        -2.70997
O         -6.05227         6.29520        -1.04838
O          6.16852         0.89945         1.46163
O         -3.05167         1.25989        -2.66957
O         -6.14439         3.89608         2.24230
H         -6.22188         3.09108         2.79461
O          0.65163        -1.37529        -2.16241
H          0.02051        -1.64503        -2.86816
O         -6.10176         3.86251        -2.12305
O         -7.18328        -1.03626         0.97849
O          6.05257        -7.50172        -0.65693
H          6.92090        -7.80606        -0.99738
O         -0.50583         2.51363        -2.75542
H          0.11194         3.09823        -3.29025
O          3.86665        -5.03505        -0.78662
H          3.79872        -5.95888        -1.11271
O         -3.61285        -3.51965         0.10296
O          2.96828        -8.54266         2.23631
H          2.90428        -7.75893         2.83373
O        -10.69737         2.17508        -0.26908
H        -10.10368         2.59361        -0.94149
O         -1.86684        10.19520        -1.25823
H         -2.84452        10.11728        -1.17090
O          8.56243         4.71245         1.35946
O          8.74513         0.48696         1.85581
O         -9.01864        -1.68361         2.53789
H         -8.05290        -1.86464         2.45497
O         -3.71799        -5.01244        -3.19457
H         -3.46315        -5.89696        -3.53978
O         -8.43972        -7.80472         0.58808
H         -7.96813        -7.53846         1.40380
O         -1.94348         0.83792         0.77455
H         -1.13688         0.71602         1.33424
O          6.75901         0.64915        -2.24096
H          7.30163        -0.13331        -2.49231
O         -3.87255        -9.91945        -1.97488
H         -4.71138        -9.55817        -2.35526
O          3.82926        -8.86299        -1.30287
H          4.68556        -8.36878        -1.36646
O         -6.10436        -3.26199        -2.63633
O         -8.67094         3.64359        -1.25696
H         -8.27018         3.64452        -2.15714
O          5.94121         3.42384        -2.83205
H          6.84261         3.43424        -3.22374
O         -4.15093         9.41893         0.04921
H         -5.09744         9.30172         0.26879
O          8.50160        -4.67589         3.25832
H          7.60731        -4.35764         3.53737
O         -3.85912        -7.61114         0.92249
H         -3.23814        -6.86608         1.10742
O         -3.05044        -1.21337         0.65196
H         -2.38261        -1.69592         1.18371
O         -8.70311         1.00662        -1.44033
O         -5.57914         0.84652         0.45303
H         -5.94805         0.15732         1.05734
O          0.30982        -0.78756         1.38259
H          0.99287        -0.59567         2.06001
H         11.98521        -1.26286         0.90786
H         11.96615         0.98842        -0.00741
H         10.54436         3.09510         0.44343
H          9.45239         5.32005        -0.44081
H          8.11149         7.16723         0.69190
H          7.13441         9.82415         0.47916
H          4.99323        10.89569         0.27435
H          2.70196        11.00239         0.00529
H          0.24175        11.14199        -0.08238
H         -1.49354         9.70707         2.07735
H         -3.92217        10.06116         3.26485
H         -5.83000         8.64640         3.55021
H         -7.63591         7.24653         2.44421
H         -8.05156         4.58754         2.80689
H         -9.55767         2.75405         2.58469
H        -11.79991         1.08481         1.69432
H        -11.64766        -1.32017         1.82352
H        -10.44552        -3.54662         1.19339
H         -9.45215        -5.60618         0.50718
H         -8.30435        -7.61386        -1.45027
H         -7.07192        -9.71413         0.67104
H         -4.95190       -10.95799         0.69047
H         -2.47458       -11.14339         0.09037
H         -0.08086       -11.12868         0.16311
H          2.45618       -10.85884        -0.79088
H          4.87567       -11.08052         0.65203
H          6.89433        -9.81834         1.31267
H          8.16931        -7.61803         1.39516
H          9.36546        -5.50506         1.57565
H         10.61670        -3.43106         0.79213
