         280
 CSIRO Nanostructure Databank - Neutral Graphene Oxide Data Set
C         30.53017        31.67621         1.33710
C         30.64021        32.86090         1.65096
C         30.74282        36.00557         2.04718
C         30.71194        37.26598         1.99887
C         30.59187        40.40262         1.50671
C         30.41376        41.65953         1.28018
C         32.58506        28.96295        -0.15743
C         31.56355        29.52020         0.25238
C         32.88200        31.57492         0.57193
C         31.65706        30.71458         1.16071
C         32.71064        33.09339         0.47350
C         31.89113        33.69136         1.66300
C         32.87462        35.94241         1.10072
C         31.76720        35.17990         1.56173
C         32.85807        37.36690         1.07060
C         31.72470        38.11716         1.50625
C         32.72770        40.27531         0.55668
C         31.63482        39.53814         1.33511
C         32.73435        41.78207         0.66031
C         31.42528        42.48509         0.83678
C         32.63277        44.49743         0.31989
C         31.57547        43.87604         0.55013
C         35.35080        27.36989        -0.67289
C         35.04420        28.82224        -0.89122
C         34.01555        29.35989         0.09377
C         35.08187        31.69821        -0.60378
C         33.95863        30.93097         0.05584
C         35.11546        33.18885        -0.41968
C         34.01885        33.85901         0.33859
C         35.32090        35.94301         0.56260
C         34.04649        35.19767         0.61578
C         35.30373        37.38942         0.69346
C         34.01877        38.09263         0.39918
C         35.21945        40.30473         0.73614
C         34.06396        39.59299         0.65832
C         35.19359        41.81572         0.95819
C         33.90681        42.45231         0.40512
C         35.14917        44.61526        -0.17624
C         33.87447        43.84343        -0.26169
C         35.38585        45.88567        -0.60233
C         37.70775        27.38737        -0.00149
C         36.37569        26.89343        -0.17823
C         37.68199        28.88231        -0.17394
C         36.39969        29.57128        -0.57461
C         37.68376        31.74382        -0.71596
C         36.38708        31.00600        -1.10205
C         37.68750        33.08298        -0.52179
C         36.42369        33.93198        -0.73097
C         37.68705        36.15373        -0.43503
C         36.54528        35.25661         0.01945
C         37.80303        37.40221         0.41125
C         36.57843        38.08719         0.78941
C         37.78240        40.39010         0.48981
C         36.55194        39.64032         0.87182
C         37.76397        41.75229         0.34676
C         36.50459        42.53020         0.56414
C         37.71582        44.48754        -0.67815
C         36.48445        43.94782         0.07510
C         37.74277        46.04241        -0.78152
C         36.46102        46.57844        -0.74887
C         40.06582        24.56836         0.20466
C         39.05255        25.29698         0.28337
C         40.22917        27.40740         0.27985
C         38.85736        26.70469         0.22100
C         40.15065        28.82634        -0.26174
C         38.99850        29.53903        -0.39218
C         40.23390        31.75619        -0.55864
C         38.98934        30.97439        -0.94357
C         40.24038        33.10557        -0.35422
C         38.93892        33.84704        -0.09283
C         40.28388        36.00787        -0.37144
C         38.97867        35.31886        -0.53383
C         40.35144        37.43160         0.08315
C         39.06863        38.12839         0.50791
C         40.34320        40.33703         0.48743
C         39.03949        39.61650         0.13293
C         40.32622        41.87174         0.57239
C         39.00333        42.52382         0.17078
C         40.24472        44.68772        -0.05342
C         38.99745        43.85499        -0.15537
C         40.24743        46.13762        -0.45719
C         38.94350        46.75945        -0.89867
C         40.21226        48.84799        -1.05702
C         39.17443        48.11680        -1.09381
C         42.61826        24.57010        -0.25351
C         41.36319        25.03865        -0.12012
C         42.69360        27.31459        -0.44900
C         41.32589        26.61530        -0.52366
C         42.72786        28.68780        -0.50409
C         41.48120        29.49969        -0.33087
C         42.78968        31.64983        -0.97551
C         41.51573        30.98924        -0.45154
C         42.73329        33.15326        -0.69511
C         41.50988        33.85623        -0.33310
C         42.72454        36.07995        -0.80926
C         41.54641        35.23793        -0.30597
C         42.83768        37.42783        -0.09288
C         41.54725        38.20297        -0.26798
C         42.84180        40.36094        -0.22117
C         41.60170        39.61291         0.11490
C         42.77576        41.72377        -0.36470
C         41.44441        42.48148        -0.32895
C         42.71638        44.66688        -0.78818
C         41.61607        43.98355         0.05098
C         42.74410        46.17701        -0.61451
C         41.54155        46.87728        -0.68046
C         42.80453        48.90769        -0.81213
C         41.50486        48.33818        -0.84380
C         43.76342        25.16600        -0.38928
C         45.28498        27.19495        -0.45770
C         43.94377        26.52978        -0.40406
C         45.20916        28.67468         0.01787
C         44.06016        29.42064        -0.72131
C         45.43285        31.49445        -0.53170
C         44.03064        30.91734        -0.31382
C         45.63941        32.76958        -0.95885
C         43.79399        33.91879        -1.09659
C         45.25230        35.92828        -0.75539
C         44.02287        35.32494        -0.84299
C         45.31952        37.44118        -0.98767
C         44.07543        38.20870        -0.49961
C         45.33775        40.28519        -0.92882
C         44.06301        39.57682        -0.48140
C         45.32517        41.80372        -0.68920
C         44.00512        42.51511        -0.60982
C         45.17892        44.65825        -0.20810
C         44.00133        43.98529        -0.39657
C         45.21568        46.11557        -0.31829
C         44.03854        46.83748        -0.55215
C         43.85816        48.24177        -0.67034
C         47.44609        27.27742         0.69956
C         46.42177        26.65873         0.39039
C         47.89412        28.58998         0.08661
C         46.56904        29.38501        -0.01887
C         47.80051        31.55112         0.30476
C         46.60057        30.74734        -0.09758
C         47.79228        33.05094         0.25594
C         46.72950        33.68694        -0.61259
C         47.70433        35.95177         0.05348
C         46.57295        35.20378        -0.68697
C         47.78680        37.43135        -0.28172
C         46.62208        38.13088        -0.55682
C         47.68048        40.29346        -0.00256
C         46.58766        39.57781        -0.44026
C         47.54864        41.69004         0.41125
C         46.45874        42.44865         0.02700
C         47.62333        44.62877         0.81761
C         46.34310        43.88994         0.34442
C         47.59837        45.99125         0.26327
C         46.52529        46.57780         0.00012
C         50.18986        29.02506         1.23790
C         49.00096        29.38393         0.73209
C         50.31409        31.67032         0.83459
C         49.14788        30.86527         0.26280
C         50.28877        33.03940         0.86862
C         49.00784        33.86279         0.72634
C         50.32239        36.00157         0.30485
C         49.09231        35.18319        -0.10142
C         50.23113        37.49339         0.24665
C         49.03641        38.13098         0.00117
C         50.11655        40.26956         0.72906
C         49.04792        39.64916        -0.14936
C         49.84128        41.43146         1.44087
C         48.66294        42.27299         1.19823
C         50.19825        44.35606         1.11922
C         48.83516        43.83715         1.21101
C         51.34080        29.56607         1.53379
C         52.62436        31.80488         1.48791
C         51.54530        30.89667         1.25426
C         52.66017        33.04440         1.36738
C         51.42009        33.89056         1.55575
C         52.34555        36.34180         1.60691
C         51.48230        35.30270         1.01547
C         52.42131        37.52188         1.26848
C         51.57368        38.28673         0.27472
C         52.55847        40.56689         0.79145
C         51.43973        39.73903         0.62912
C         52.56480        41.87340         0.70080
C         52.52161        43.18997         0.81319
C         51.29854        43.80759         0.82007
O         41.59937        30.37871         0.87880
O         36.80553        29.54840         0.81691
O         46.54390        44.33576         1.72707
O         44.74666        33.28411        -1.89460
O         48.47311        43.09073         2.40604
O         49.36336        30.81123        -1.21461
O         34.54545        32.58071        -1.66100
O         36.35512        35.23992         1.43404
O         47.33612        32.32742         1.45918
O         40.11060        45.73003         0.96307
O         44.76418        42.41403        -1.91769
O         36.74435        43.67071         1.47882
O         36.71702        38.87356         2.06748
O         39.68593        35.71111        -1.74270
O         47.06014        34.46225        -1.81694
O         32.25467        40.08823        -0.90426
O         51.51438        35.45305        -0.42092
O         41.11839        39.81252         1.59567
O         39.98042        37.61037         1.52860
O         42.36968        36.48530        -2.20088
O         52.14867        38.14551        -1.01456
H         52.29155        37.18073        -1.16522
O         32.06626        30.25445         2.43393
H         31.30863        29.82009         2.87795
O         42.96132        37.15384         1.33254
H         42.30476        37.70023         1.82081
O         31.95148        33.34331        -0.72559
H         32.47851        33.00164        -1.48298
O         37.55198        44.01402        -2.03924
H         38.35282        44.23588        -2.55825
O         42.18050        35.28233        -2.97865
H         41.20232        35.12901        -2.90010
O         42.48617        44.42711        -2.21090
H         43.35304        44.45271        -2.67040
O         45.77458        27.14258        -1.81698
H         45.73087        26.20814        -2.11539
O         42.12151        44.11566         1.38074
H         41.45131        43.74345         2.00518
O         50.60226        41.77647         2.48202
H         50.16247        42.54305         2.92975
O         49.30498        34.87208        -1.47640
H         50.27262        34.75049        -1.61278
O         38.84061        33.96493         1.35501
H         38.92027        33.07358         1.75513
O         44.34695        29.42536        -2.12892
H         44.65706        28.53143        -2.40119
O         47.24226        35.97177         1.42206
H         47.92246        36.38481         1.99426
O         39.03651        39.58185        -1.33129
H         38.32353        38.97536        -1.63236
O         36.42566        34.27263        -2.13324
H         35.79472        33.67060        -2.58994
O         33.79463        37.94357        -1.06044
H         32.83139        38.07434        -1.22178
O         40.51230        42.20588         1.95943
H         40.93074        41.41809         2.39015
O         48.32696        28.28051        -1.24127
H         47.57318        27.83212        -1.69932
O         48.77897        34.26961         2.09308
H         48.24698        33.55961         2.52331
O         43.88744        31.11060         1.09939
H         44.27659        30.33645         1.57279
O         51.16861        33.99998         2.94269
H         51.20780        33.11050         3.34965
O         32.59998        33.38165         2.86087
H         32.16789        33.82983         3.61725
O         34.59508        29.10173        -2.19384
H         35.18579        28.67715        -2.84826
O         40.63404        27.48689         1.65277
H         40.99493        28.38046         1.83865
O         34.35391        28.95276         1.39250
H         33.67198        29.29982         2.01741
O         45.43980        40.11050        -2.37481
H         45.00995        40.89725        -2.79153
O         42.77346        31.45080        -2.39200
H         43.55016        31.91979        -2.77279
O         33.30979        40.57448        -1.75709
H         33.85546        39.75439        -1.90842
O         40.89810        26.64984        -1.88550
H         41.60097        26.27671        -2.45640
O         37.36067        36.68357        -1.74955
H         38.12850        36.47717        -2.33835
O         44.80854        28.61527         1.40941
H         45.46965        28.07063         1.89281
O         33.64501        43.61469        -1.65294
H         32.90438        42.97836        -1.75630
O         49.41672        39.91856        -1.53619
H         50.26730        39.45929        -1.71745
O         50.53276        30.00951        -1.47414
H         50.13493        29.11583        -1.64890
O         40.90455        42.39415        -1.66569
H         41.51562        42.88645        -2.26775
O         45.29081        37.47998        -2.43763
H         45.37653        38.42406        -2.72675
O         36.35506        30.95652        -2.54742
H         35.65719        31.58445        -2.85090
O         39.09698        30.82284        -2.39034
H         38.18755        30.81414        -2.77554
O         35.07154        41.95643         2.39283
H         35.51977        42.79793         2.64692
