         324
 CSIRO Nanostructure Databank - Neutral Graphene Oxide Data Set
C          1.29717         2.03914        -1.42235
C          1.25434         3.42650        -1.26316
C          2.49072         1.33824        -1.27830
C          2.42858         4.16381        -0.96460
C          1.21608         6.27881        -0.44776
C          1.14141         7.64960        -0.23469
C          2.39900         5.60140        -0.77657
C          2.28732         8.52276        -0.45300
C          1.08356        10.76825        -0.12587
C          1.12886        12.12660        -0.05262
C          2.27557         9.92059         0.11097
C          2.33285        12.86550         0.23463
C          1.17830        15.05308         0.43401
C          1.21156        16.41891         0.56540
C          2.37557        14.27708         0.28847
C          2.44183        17.14074         0.49106
C          2.49222        18.54130         0.72765
C          3.69250         2.03558        -0.98065
C          3.65225         3.45150        -0.85331
C          4.91767         1.34219        -0.77357
C          4.87170         4.13852        -0.38624
C          3.71206         6.34759        -0.93930
C          3.64611         7.85136        -0.64804
C          4.84780         5.62119        -0.23079
C          4.86790         8.56552        -0.24644
C          3.58929        10.62153         0.30765
C          3.57377        12.11436         0.45142
C          4.87630         9.93987        -0.01409
C          4.89608        12.85903         0.29005
C          3.63686        14.98462         0.14085
C          3.64342        16.43609         0.18525
C          4.83549        14.28603        -0.02241
C          4.84864        17.16113         0.05999
C          3.69311        19.21935         0.72255
C          4.90760        18.54744         0.39409
C          6.16079         2.00786        -0.61834
C          6.18006         3.46018        -0.51908
C          7.35164         1.27219        -0.50070
C          7.36824         4.18128        -0.53253
C          6.16456         6.33680        -0.09133
C          6.14335         7.82665        -0.10048
C          7.43435         5.62766        -0.39553
C          7.39119         8.55546        -0.38262
C          6.11506        10.66954        -0.05904
C          6.12780        12.10112        -0.02840
C          7.33217         9.93988        -0.35697
C          7.31475        12.84396        -0.17738
C          6.06274        14.96420        -0.46558
C          6.05148        16.49635        -0.45319
C          7.36187        14.26306        -0.31648
C          7.35637        17.22984        -0.43606
C          6.15516        19.22409         0.44271
C          7.37646        18.59301         0.13736
C          8.63372         1.91118        -0.71708
C          8.62001         3.45929        -0.80717
C          9.90709         1.31434        -0.31152
C          9.92063         4.13427        -0.53881
C          8.61468         6.35313        -0.51298
C          8.63227         7.81885        -0.54692
C          9.92054         5.63585        -0.50625
C          9.82949         8.50801        -0.74951
C          8.56255        10.70115        -0.62253
C          8.57626        12.08338        -0.07984
C          9.86969         9.98037        -0.84728
C          9.86168        12.79280         0.09796
C          8.59303        14.96189        -0.29660
C          8.66478        16.44465        -0.43586
C          9.81807        14.27245        -0.01418
C          9.92110        17.16524        -0.09121
C          8.60880        19.20814         0.38991
C          9.88085        18.57523         0.24479
C         11.13440         1.92515        -0.48120
C         11.15158         3.36298        -0.97288
C         12.28881         1.27359         0.08896
C         12.38312         4.22775        -1.19073
C         11.17345         6.35368        -0.82380
C         11.10142         7.80740        -0.99735
C         12.38039         5.69911        -0.97137
C         12.41044         8.57951        -1.00961
C         11.15212        10.70628        -0.63275
C         11.13709        12.09568        -0.24062
C         12.38712        10.02782        -0.70860
C         12.30645        12.80253        -0.09349
C         11.02145        14.95035         0.10247
C         11.08846        16.37639         0.00943
C         12.20866        14.15131         0.60288
C         12.39323        16.96193        -0.01166
C         11.00062        19.33673         0.71161
C         12.34790        19.01787         0.44088
C         13.59821         1.58051        -0.27755
C         13.69957         3.60027        -1.15892
C         14.79591         1.38533         0.42780
C         14.84671         4.22380        -0.75510
C         13.66359         6.39488        -0.91287
C         13.68217         7.84026        -0.83021
C         14.87434         5.67386        -0.75386
C         14.85824         8.55364        -0.64264
C         13.62130        10.70869        -0.57338
C         13.55144        12.21708        -0.71498
C         14.86880        10.00297        -0.53661
C         14.85770        12.90993        -0.34857
C         13.53315        14.91269         0.67175
C         13.56139        16.38199         0.49508
C         14.82572        14.23464         0.33375
C         14.76882        17.13597         0.62019
C         13.55141        19.33745         1.07385
C         14.75996        18.56853         0.86730
C         16.01052         2.08352         0.15112
C         16.08130         3.38892        -0.61131
C         17.15390         1.59991         0.78640
C         17.38559         4.14482        -0.61442
C         16.14473         6.34768        -0.62083
C         16.19060         7.85874        -0.82545
C         17.34544         5.64796        -0.53977
C         17.29316         8.55409        -0.06350
C         16.10849        10.67126        -0.31444
C         16.14854        12.14066        -0.24166
C         17.30256         9.93864         0.05442
C         17.29864        12.84154         0.34605
C         16.06309        15.02672         0.31350
C         16.02838        16.42184         0.63085
C         17.26506        14.25030         0.45561
C         17.24222        17.12329         0.83173
C         15.99392        19.21611         1.06547
C         17.24062        18.53913         0.97631
C         18.44402         2.19920         0.65730
C         18.57146         3.42090        -0.07757
C         19.60925         1.56665         1.12244
C         19.84815         3.87607        -0.36071
C         18.56536         6.40733        -0.23510
C         18.43097         7.75669         0.38471
C         19.82019         6.02531        -0.60710
C         19.66754         8.45921         0.90635
C         18.52209        10.62492         0.50985
C         18.63113        12.13174         0.32039
C         19.65768         9.94164         0.87690
C         19.61954        12.79318         1.25208
C         18.40126        14.92738         0.99058
C         18.54787        16.39044         0.65969
C         19.37775        14.10466         1.60190
C         19.78183        17.16968         1.08134
C         18.46659        19.25233         0.93998
C         19.72695        18.59133         0.87528
C         20.88851         2.17152         0.98582
C         21.00410         3.45188         0.33525
C         22.07354         1.51381         1.35243
C         22.21294         4.22270         0.39888
C         21.12692         6.69760        -0.29225
C         21.00385         7.69417         0.90934
C         22.30074         5.66668        -0.01454
C         22.22625         8.59872         0.85928
C         20.90804        10.64168         1.34436
C         20.90532        12.12615         1.61153
C         22.20043         9.93180         1.13404
C         22.28045        12.94125         1.80358
C         21.23772        15.22585         1.69979
C         21.05266        16.56889         1.21348
C         22.28848        14.40788         1.37699
C         22.22755        17.24423         0.78089
C         20.91780        19.30939         0.62461
C         22.15091        18.63516         0.43431
C         23.32924         2.15658         1.20489
C         23.37053         3.58534         0.89178
C         24.49506         1.39603         1.33656
C         24.60407         4.30305         1.14573
C         23.56214         6.39695         0.40740
C         23.49826         7.89999         0.50538
C         24.67708         5.67507         1.05247
C         24.78368         8.59433         0.77192
C         23.46102        10.72061         1.33720
C         23.46808        12.19799         1.18951
C         24.76994        10.01511         1.23583
C         24.63802        12.86649         0.83886
C         23.47798        15.05990         0.87581
C         23.44295        16.50204         0.63288
C         24.64324        14.31480         0.69588
C         24.56505        17.17798         0.12105
C         23.28888        19.26868        -0.11420
C         24.48535        18.54530        -0.31600
C         25.81248         2.02303         1.42211
C         25.84345         3.53889         1.46464
C         27.02087         1.33454         0.96618
C         27.11783         4.19250         1.10954
C         25.89189         6.42022         1.59253
C         25.99619         7.82838         1.05362
C         27.19840         5.64005         1.36775
C         27.21574         8.60443         1.13655
C         26.01044        10.76351         0.91367
C         25.92300        12.17796         0.65910
C         27.18157        10.04292         0.79608
C         27.07512        12.85206         0.22831
C         25.90673        15.00772         0.40773
C         25.86473        16.50649         0.07802
C         27.06771        14.24883        -0.07676
C         26.94191        17.05723        -0.74995
C         25.61043        19.13485        -0.94660
C         26.79544        18.40373        -1.22794
C         28.17831         2.01636         0.66292
C         28.24672         3.47238         0.76242
C         29.34161         1.30156         0.18098
C         29.45885         4.15832         0.33344
C         28.49738         6.34662         1.03581
C         28.54787         7.84901         0.98316
C         29.55160         5.57299         0.35095
C         29.63598         8.50477         0.22505
C         28.47101        10.70468         0.55216
C         28.39064        12.18373         0.19926
C         29.61628         9.90889         0.04443
C         29.47148        12.77851        -0.60741
C         28.16445        14.89313        -0.66720
C         28.08580        16.29300        -1.04336
C         29.35380        14.13416        -1.01487
C         29.14842        16.88865        -1.80298
C         27.85596        18.98455        -1.95156
C         29.02748        18.25027        -2.23715
C         30.45864         1.95873        -0.23007
C         30.53513         3.40066        -0.20191
C         31.66199         4.07392        -0.71312
C         30.65694         6.24517        -0.22771
C         30.68271         7.71382        -0.31430
C         31.71184         5.46121        -0.74639
C         31.73600         8.39007        -0.96541
C         30.66921        10.56608        -0.63813
C         30.61250        12.00650        -0.93000
C         31.73513         9.76957        -1.11189
C         31.66408        12.65025        -1.62020
C         30.42323        14.75071        -1.71892
C         30.31790        16.14560        -2.13896
C         31.57483        13.98316        -1.99081
C         31.33593        16.77505        -2.87291
C         30.08833        18.84619        -2.97561
C         31.22122        18.11451        -3.28028
O         11.73249         8.24797        -2.26687
O          9.07961        10.55071        -1.97882
O         13.73138         2.26136        -1.50882
O          4.56112         4.81088         0.92620
O         28.16989         8.40527         2.26260
O         18.70867         7.85058         1.84303
O         25.92356         2.78646         2.70956
O         23.36504         5.90107        -0.97933
O          6.23299         7.06527         1.18331
O         19.99320         4.86185        -1.35332
O          5.86122        15.74528        -1.68830
O         15.74867        12.88973        -1.50068
O         10.04310         4.79031         0.74352
O         24.19881        10.24961         2.55338
O         28.83178        11.72920         1.52986
O          8.09453        17.03078        -1.67025
O          4.34343        12.54785         1.61912
O         24.22685         8.51396        -0.62110
O          9.17427        12.20794         1.26415
O         12.51399        18.16427        -0.68906
O          2.86871         9.99435         1.44262
O         11.55179         3.71618        -2.31290
O         16.88669         3.47780        -1.83180
O         14.32775        14.29999         1.74123
O          2.92922         8.50228        -1.77679
O         26.29010        16.01841         1.39853
O          8.65781         2.66696        -1.99947
O         20.74849        11.16618         2.72260
O         28.21123         5.88651         2.40259
O         20.22788        14.72156         2.52425
O         19.16633        12.30482        -1.04904
H         18.45279        12.05775        -1.67671
O         21.47236         7.48071        -1.44462
H         22.35373         7.15952        -1.76684
O         18.76774        16.35920        -0.82323
H         17.96503        15.96072        -1.22640
O         11.84059        13.86345         1.98550
H         12.67316        13.64996         2.46686
O         21.09222         6.90906         2.11313
H         20.26327         7.06190         2.62638
O         22.53810        12.93691         3.21876
H         22.25843        12.05860         3.56845
O         16.52774         8.03889        -2.24871
H         15.82643         7.60164        -2.77762
O         25.70745         6.54651         3.02751
H         26.60102         6.71028         3.41137
O          4.08716         6.24076        -2.34756
H          3.54303         6.90495        -2.83124
O         13.35730        12.45963        -2.14990
H         14.24307        12.36299        -2.57281
H          0.37194         1.49528        -1.65883
H          0.29717         3.95060        -1.38999
H          2.51202         0.24475        -1.38590
H          0.30839         5.68555        -0.26234
H          0.24063         8.07437         0.22968
H          0.14787        10.27177        -0.42157
H          0.20924        12.69035        -0.26518
H          0.21429        14.53400         0.52487
H          0.28148        16.97604         0.74926
H          1.55874        19.07468         0.95843
H          4.91553         0.24323        -0.82772
H          3.72563        20.29319         0.95560
H          7.31024         0.19189        -0.29947
H          6.17334        20.26850         0.78879
H          9.86929         0.32458         0.16769
H          8.59589        20.23455         0.78770
H         12.11085         0.51782         0.86878
H         10.78188        20.22667         1.32084
H         14.80304         0.66851         1.26305
H         13.59998        20.19593         1.75958
H         17.07656         0.66475         1.36099
H         15.99811        20.30085         1.24896
H         19.53592         0.57953         1.60065
H         18.44231        20.35215         0.91870
H         22.03704         0.48107         1.72751
H         20.86252        20.39282         0.44325
H         24.41452         0.30315         1.43764
H         23.23283        20.32289        -0.42128
H         26.96459         0.25116         0.77971
H         25.54544        20.18210        -1.27693
H         29.29444         0.20363         0.13940
H         27.76786        20.02211        -2.30579
H         31.32563         1.39894        -0.61006
H         32.50147         3.48853        -1.11461
H         32.60053         5.94203        -1.17504
H         32.58162         7.82684        -1.38047
H         32.58170        10.23126        -1.63601
H         32.58206        12.10344        -1.87105
H         32.42800        14.43392        -2.51435
H         32.24646        16.22543        -3.14523
H         29.99247        19.89138        -3.30227
H         32.03884        18.57583        -3.85130
