         300
 CSIRO Nanostructure Databank - Neutral Graphene Oxide Data Set
C         30.37770        31.56934        -1.30165
C         30.27882        32.80456        -1.19539
C         30.26516        36.19596        -1.18813
C         30.27581        37.42169        -1.09918
C         30.45635        40.13782         0.59453
C         30.30808        41.24006         1.29297
C         33.01218        28.91415        -1.82192
C         31.87495        29.41239        -1.74951
C         32.82312        31.63512        -1.49387
C         31.37989        30.54907        -0.95138
C         32.63436        33.01454        -0.85295
C         31.38459        33.82442        -1.47079
C         32.63278        36.01146        -1.13062
C         31.32478        35.21336        -0.78932
C         32.67702        37.56094        -1.15397
C         31.35692        38.45165        -1.20106
C         32.64335        40.46875        -0.14382
C         31.39985        39.49544        -0.10881
C         32.73027        41.37477         1.09721
C         31.38836        42.04772         1.50201
C         32.78332        43.83309         2.46180
C         31.71969        43.25713         2.18064
C         35.74092        27.40989        -1.02993
C         35.40531        28.73156        -0.86323
C         34.32307        29.50494        -1.49940
C         35.05483        31.63069        -0.10071
C         34.15422        30.98525        -1.14460
C         34.98270        33.17335         0.08468
C         34.02643        33.73840        -0.98262
C         35.24132        35.99807        -0.82536
C         33.93321        35.26589        -1.01667
C         35.18837        37.45711        -0.33840
C         33.97112        38.25536        -0.85093
C         35.26956        40.31539        -0.03404
C         33.96513        39.72599        -0.46801
C         35.33885        41.43584         0.95811
C         34.04552        41.95938         1.54097
C         35.43676        44.04283         2.34901
C         34.14566        43.27972         2.32697
C         35.61703        45.49786         2.47257
C         37.86515        27.21349         0.07103
C         36.77886        26.75776        -0.65585
C         37.58663        28.60389         0.55815
C         36.34774        29.37707         0.09983
C         37.51932        31.61652         0.97760
C         36.26076        30.87335         0.38123
C         37.61693        33.11631         0.50069
C         36.37614        33.83738         0.04328
C         37.77887        35.92292        -0.24421
C         36.50077        35.21580        -0.56226
C         37.73663        37.42856        -0.07665
C         36.49639        38.16697        -0.75652
C         37.73137        40.26017        -0.15835
C         36.54479        39.58606        -0.22984
C         37.83206        41.65071         0.28201
C         36.65487        42.15460         1.05688
C         37.86456        44.41308         1.26466
C         36.71899        43.52399         1.66522
C         37.84927        45.99259         1.41914
C         36.52978        46.21932         2.08273
C         40.32532        24.50413         0.61447
C         39.44592        25.20917         0.11501
C         40.00981        27.19964         1.29214
C         39.08363        26.57208         0.43919
C         39.71975        28.56548         1.66493
C         38.72829        29.35342         1.12904
C         40.08692        31.72418         1.20850
C         38.84513        30.82646         0.69121
C         40.20586        32.97932         0.29165
C         38.93895        33.75065         0.06384
C         40.20262        36.09607         0.33032
C         38.94939        35.25933        -0.04290
C         40.31464        37.41645        -0.54018
C         39.00876        38.09703        -0.62278
C         40.20094        40.39761        -0.83027
C         38.95060        39.60163        -0.67187
C         40.32663        41.70873        -0.08034
C         38.97869        42.38983         0.15001
C         40.30372        44.48383         0.67266
C         38.92745        43.90929         0.27817
C         40.40396        45.75153         1.47518
C         39.09036        46.38421         2.24505
C         40.39467        48.54963         2.08627
C         39.41111        47.82631         2.23948
C         42.83331        24.81304         0.75918
C         41.51380        24.73516         1.42112
C         42.63132        27.34719         1.96715
C         41.31202        26.57879         1.75565
C         42.72410        28.81847         1.65386
C         41.65574        29.63844         1.85672
C         42.76678        31.74164         1.06554
C         41.49535        31.06039         1.44013
C         42.85969        33.04261         0.30639
C         41.50332        33.76895         0.19412
C         42.75383        35.97535         0.63531
C         41.48102        35.26761         0.30394
C         42.71950        37.46946        -1.38536
C         41.41591        38.11947        -1.01272
C         42.77937        40.32963        -1.40811
C         41.42246        39.61742        -1.21213
C         42.72267        41.88640        -1.15711
C         41.44387        42.58375        -0.66699
C         42.80769        44.74938        -0.07169
C         41.47739        44.01088        -0.16815
C         42.96071        45.96790         0.83131
C         41.68736        46.59786         1.35435
C         42.89951        48.72626         1.28501
C         41.51630        48.17544         1.16577
C         43.84459        25.49322         0.92680
C         45.24495        27.35353         2.00737
C         43.98167        26.52044         2.01342
C         45.28223        28.82373         1.64389
C         44.00159        29.45147         1.18412
C         45.30359        31.69966         1.13442
C         44.02217        30.92766         0.93828
C         45.30953        33.19771         1.11234
C         43.94214        33.92909         1.02166
C         45.17685        35.89564        -0.29293
C         43.97465        35.33921         0.44919
C         45.21768        37.46064        -0.20185
C         44.11253        38.14904        -1.12767
C         45.28692        40.37711        -0.72695
C         43.98928        39.64120        -0.79056
C         45.34102        41.85308        -1.04749
C         44.03595        42.64003        -1.07423
C         45.37755        44.75474        -0.27017
C         44.05870        44.09364        -0.61391
C         45.33444        46.34488        -0.32548
C         44.38669        46.77365         0.79981
C         43.90683        48.18949         0.81062
C         47.61609        27.33162         1.30281
C         46.58249        26.81356         1.73717
C         47.68193        28.64695         0.54168
C         46.64686        29.52337         1.36945
C         47.81797        31.67617         0.56622
C         46.53982        30.93468         0.76878
C         47.94500        33.13501         1.04390
C         46.60998        33.94645         0.82609
C         47.62773        35.90216        -0.65208
C         46.50864        35.29418         0.17205
C         47.73311        37.38854        -0.57615
C         46.53631        38.11387        -0.56420
C         47.79813        40.26217        -0.20117
C         46.60681        39.59277        -0.90147
C         47.86437        41.77068        -0.27066
C         46.64807        42.53093        -0.76794
C         47.97018        44.67967        -0.57202
C         46.66988        43.97774        -0.36501
C         47.77498        46.04932        -0.41931
C         46.77717        46.72985        -0.04481
C         50.16464        28.77386        -0.27064
C         49.01479        29.36318         0.46224
C         50.14252        31.57511        -0.38510
C         49.09343        30.86956         0.46482
C         50.28656        33.05720        -0.13114
C         49.26350        33.78555         0.51989
C         50.59241        35.90864         0.10642
C         49.56107        35.14365         0.83649
C         50.30855        37.30564        -0.48766
C         49.00099        38.00802        -0.50740
C         50.41325        40.14094        -0.24859
C         49.06743        39.45190        -0.14945
C         50.49583        41.71088        -0.29971
C         49.18665        42.49568        -0.35496
C         50.49257        44.42021        -1.08471
C         49.09681        43.86505        -1.12659
C         51.21502        29.33063        -0.60834
C         52.50913        31.56485        -1.08957
C         51.78383        30.63540        -0.22527
C         52.50334        32.80794        -1.10115
C         51.48687        33.72124        -0.62239
C         52.60783        35.94318        -1.14638
C         51.67288        35.08606        -0.50488
C         52.54260        37.13334        -1.49541
C         51.30871        37.99699        -1.47636
C         52.61938        40.18641        -1.04409
C         51.53217        39.38017        -0.89776
C         52.78564        41.46487        -1.00457
C         51.75871        42.35773        -0.83003
C         51.52286        43.73185        -1.13395
O         33.32122        35.57392        -2.32094
O         37.64368        37.67714         1.30278
O         50.93806        37.14342         0.82221
O         40.64098        44.44125         2.08186
O         49.52927        30.09645         1.61445
O         44.04149        29.98259        -0.17503
O         42.69349        36.49644        -2.12506
O         48.25308        39.73584         1.06189
O         36.11668        35.56958        -1.93474
O         46.97566        31.30460        -0.57004
O         48.44570        42.44339         0.88018
O         42.27169        31.87288         2.41805
O         48.33319        35.24143        -1.40344
O         46.24322        42.23506        -2.12931
O         35.05011        31.01995         1.21278
O         36.37992        28.67330         1.39152
O         33.58017        38.00077        -2.21518
O         45.20238        28.36587         3.04345
O         34.72050        40.59933        -1.36781
O         33.39827        40.84834         2.26473
O         34.83855        30.54818        -2.37472
O         43.27438        44.99936        -1.42801
O         43.30125        42.53411        -2.31826
O         42.63614        45.97210         2.25463
O         37.90872        43.69532         2.52381
O         38.77962        38.78228        -1.86763
O         44.49003        40.12471         0.48665
O         45.99614        44.23149         0.92642
O         35.01286        43.25884         3.47437
O         36.90080        33.96843         1.42022
O         40.58767        40.31695        -2.22895
O         40.57608        29.17374         2.59144
O         50.73180        40.94759         0.90644
O         36.27148        41.12900         2.03422
O         39.55492        32.97428        -1.00939
O         41.56401        34.58793        -1.00215
O         41.74158        26.94095         3.06347
O         41.05029        43.68153        -1.52783
O         46.65874        35.19872         1.60635
O         45.38793        32.44339         2.37796
O         38.90591        30.66672        -0.73922
H         39.82445        30.49972        -1.03441
O         48.10180        33.03822         2.46810
H         47.68223        33.82231         2.88479
O         41.07613        48.32371        -0.16424
H         40.92281        49.27229        -0.35201
O         44.91386        46.86176        -1.55301
H         45.52063        46.58879        -2.26947
O         38.54711        44.41683        -1.01574
H         39.27713        44.20289        -1.64895
O         36.52513        38.19875        -2.16776
H         36.46357        37.27665        -2.51604
O         32.67345        31.69822        -2.88528
H         33.41609        31.17690        -3.28440
O         31.26669        35.10547         0.63677
H         30.36133        34.82628         0.89021
O         35.06668        37.43224         1.08327
H         35.99189        37.47155         1.48603
O         40.80815        41.32680         1.24274
H         40.53463        42.00331         1.90158
O         47.19406        28.45410        -0.76123
H         47.92785        28.18571        -1.35336
O         45.05867        46.48084         1.99209
H         44.42664        46.56588         2.74114
O         43.48061        34.13940         2.36890
H         43.84309        33.42591         2.94397
O         42.58201        37.25480         1.02111
H         43.42750        37.59202         1.42518
O         47.24423        29.76788         2.64195
H         46.85202        29.14581         3.29907
O         37.96973        46.63620         0.17598
H         37.22677        46.38938        -0.41142
O         48.80113        43.51287        -2.48344
H         48.74345        44.32728        -3.02508
O         37.33543        31.62164         2.38706
H         36.87926        32.46130         2.62735
O         31.46340        34.03791        -2.84930
H         31.62271        33.17061        -3.29057
O         45.06747        37.73280         1.21050
H         45.28285        38.68054         1.38239
O         49.76935        31.38107        -1.72899
H         50.28596        31.97902        -2.30872
O         31.32766        39.13927        -2.44063
H         31.60680        38.52361        -3.15215
O         43.05038        40.15428        -2.82165
H         42.27174        40.50955        -3.31113
O         49.00030        35.78853         1.83196
H         49.41211        36.68978         1.89706
O         34.62858        33.36684        -2.23024
H         34.26711        33.95978        -2.92820
O         41.58682        24.08378         2.61685
H         42.40046        24.37579         3.08975
O         32.37280        41.37114        -1.21568
H         32.19688        40.83835        -2.02806
O         32.31545        32.74251         0.51459
H         32.23530        33.60004         1.00080
O         34.46095        33.47873         1.37896
H         34.61252        32.68387         1.94603
O         40.03133        36.57365         1.66414
H         39.12081        36.99026         1.76020
O         44.72613        38.10343        -2.44569
H         44.12141        38.58715        -3.06169
O         50.71099        38.07574        -2.75340
H         51.29508        38.57294        -3.36188
O         46.94982        39.68860        -2.30779
H         46.32232        39.10014        -2.79441
O         43.98386        25.76862         3.23221
H         44.21158        26.37581         3.96876
O         39.04547        45.91087         3.55511
H         38.74687        44.97299         3.56935
O         43.30779        32.71970        -1.01096
H         43.04391        33.46536        -1.60072
O         52.24106        30.64036         1.06039
H         51.66372        30.06748         1.61484
O         39.73396        32.27834         2.47472
H         39.71461        31.56627         3.14849
O         31.38920        30.23033         0.38063
H         31.18938        31.03340         0.90830
O         45.11193        35.46572        -1.66157
H         44.25477        35.75943        -2.07063
