         732
 CSIRO Nanostructure Databank - Neutral Graphene Oxide Data Set
C         23.41859        24.45042        -2.33499
C         22.26278        25.17965        -2.63264
C         23.35581        27.24829        -1.93539
C         22.22884        26.55308        -2.43055
C         23.32760        28.70348        -1.80341
C         22.42714        29.43022        -2.62180
C         22.92888        31.78454        -2.03355
C         22.36160        30.81288        -2.87256
C         23.35495        33.10301        -2.34065
C         22.61679        33.81024        -3.36343
C         23.97180        35.85750        -3.05183
C         22.80943        35.12040        -3.63432
C         23.68572        37.29796        -2.66730
C         22.48963        37.94103        -2.84847
C         23.36355        40.11409        -2.02537
C         22.35143        39.34139        -2.61513
C         23.22060        41.56381        -1.82927
C         22.04720        42.26217        -2.01261
C         22.83158        44.60709        -1.85762
C         21.84789        43.66765        -1.69229
C         22.96332        45.98917        -1.39676
C         21.77916        46.72590        -1.27480
C         23.02170        48.73942        -0.87981
C         21.80226        48.09392        -0.98768
C         25.99429        22.96274        -1.92619
C         25.71650        24.28768        -1.36150
C         24.53974        25.08967        -1.79390
C         25.69184        27.18497        -1.07292
C         24.51924        26.49717        -1.58200
C         25.59263        28.59092        -0.82701
C         24.41542        29.31727        -1.07601
C         25.50834        31.52982        -0.60007
C         24.40320        30.72952        -0.76307
C         25.41005        33.07596        -0.59838
C         24.44165        33.76053        -1.64195
C         25.76717        35.85832        -1.32043
C         24.67692        35.10611        -1.93301
C         25.81237        37.27287        -1.35590
C         24.87458        38.09145        -2.20524
C         25.59647        40.06658        -0.87236
C         24.56532        39.44947        -1.62179
C         25.46233        41.48396        -0.47142
C         24.35216        42.25095        -1.13945
C         25.55233        44.44738        -0.78434
C         24.67139        43.64494        -1.45339
C         25.51756        45.90652        -0.93997
C         24.24989        46.61259        -1.16168
C         25.49249        48.76070        -0.84418
C         24.24682        48.03123        -0.96738
C         25.54033        50.17932        -0.87607
C         28.31112        22.98351        -1.08332
C         27.17486        22.32777        -1.68989
C         28.24644        24.35367        -0.81930
C         26.94228        25.03742        -0.81051
C         28.09686        27.21952        -0.42821
C         26.88974        26.50589        -0.76928
C         28.04497        28.60289        -0.23823
C         26.74098        29.28456        -0.22013
C         27.96458        31.55787         0.16679
C         26.69689        30.81419        -0.09921
C         27.96050        33.04752        -0.03014
C         26.82942        33.65280        -0.85767
C         28.02398        35.84180        -0.35280
C         26.85124        35.15541        -0.75397
C         28.00220        37.26091        -0.23650
C         26.86528        37.96911        -0.71431
C         27.87670        40.08517         0.23639
C         26.78367        39.39183        -0.54876
C         27.97018        41.57190         0.00472
C         26.67603        42.25315        -0.01407
C         27.96247        44.45254        -0.08338
C         26.66526        43.77349        -0.06131
C         27.90390        45.95043        -0.01769
C         26.68840        46.61275        -0.64954
C         27.94657        48.76183        -0.62897
C         26.71589        48.05055        -0.70214
C         27.97829        50.17670        -0.69567
C         26.73350        50.86321        -0.79510
C         30.79338        20.17211        -0.50064
C         29.63174        20.87794        -0.91238
C         30.73766        23.01389        -0.49025
C         29.56101        22.27161        -0.86850
C         30.67962        24.38761        -0.27846
C         29.42241        25.10051        -0.45315
C         30.49862        27.18163         0.34617
C         29.33918        26.48037        -0.24925
C         30.43318        28.67446         0.50545
C         29.32464        29.39757        -0.24219
C         30.45560        31.57342         0.19750
C         29.24161        30.84962         0.15286
C         30.48185        33.01493         0.09828
C         29.27477        33.73967        -0.09138
C         30.54286        35.91660        -0.24034
C         29.26151        35.13013        -0.17821
C         30.42691        37.23621         0.50644
C         29.19470        38.00480         0.10860
C         30.46469        40.13865        -0.11357
C         29.19298        39.37183         0.13790
C         30.42271        41.60942         0.21293
C         29.15899        42.29155         0.12031
C         30.41012        44.47191         0.16703
C         29.15057        43.75546         0.08450
C         30.39562        45.91046        -0.04722
C         29.23212        46.57974        -0.34622
C         30.51803        48.76586        -0.79495
C         29.21798        48.01142        -0.71795
C         30.47393        50.21809        -0.48517
C         29.22412        50.89999        -0.58484
C         30.36528        53.02982        -0.18485
C         29.26201        52.34403        -0.57637
C         33.12618        18.72582         0.50257
C         33.14292        20.12225         0.33337
C         31.97298        20.81712        -0.18760
C         33.18077        22.99630         0.19805
C         32.06807        22.28574        -0.52020
C         33.11306        24.41754         0.30433
C         31.87817        25.11702         0.10919
C         33.00398        27.22871         0.63392
C         31.81578        26.50123         0.37982
C         33.00954        28.69216         0.80502
C         31.68924        29.46369         0.70138
C         32.95096        31.57535         0.14071
C         31.68489        30.86933         0.31765
C         32.96866        33.03516         0.28091
C         31.73515        33.73229         0.20600
C         32.94762        35.85192         0.46411
C         31.75137        35.14775         0.21350
C         32.93981        37.32260         0.56553
C         31.71339        38.02951         0.41864
C         32.90726        40.16274         0.50677
C         31.70210        39.42199         0.36459
C         32.88265        41.59762         0.46383
C         31.62236        42.31374         0.34767
C         32.89233        44.45101         0.35334
C         31.61851        43.76483         0.33186
C         32.93163        45.91067         0.25741
C         31.64602        46.71288         0.25032
C         32.93664        48.81865        -0.05097
C         31.82491        47.97984        -0.62330
C         32.89483        50.20976         0.02766
C         31.63484        50.90217        -0.10756
C         32.83224        53.07548         0.45255
C         31.52568        52.30631         0.44433
C         32.83612        54.46271         0.55468
C         35.29434        18.77586         1.59596
C         34.17638        18.07134         1.13962
C         35.39594        20.17005         1.35638
C         34.30640        20.84591         0.73686
C         35.48421        23.01538         1.05583
C         34.31288        22.29814         0.63957
C         35.49069        24.44023         0.97261
C         34.28539        25.13704         0.66163
C         35.47484        27.29333         0.89113
C         34.25468        26.56316         0.71247
C         35.48366        28.72110         0.77188
C         34.27412        29.40174         0.60709
C         35.49882        31.61511         0.51431
C         34.27423        30.82633         0.28791
C         35.45807        32.99546         0.42454
C         34.20122        33.72843         0.36481
C         35.42039        35.92825         0.55527
C         34.16563        35.14199         0.50902
C         35.36074        37.29786         1.20316
C         34.12288        38.04688         0.77547
C         35.36624        40.19954         0.86592
C         34.12971        39.46611         0.74382
C         35.35339        41.59822         0.71761
C         34.10277        42.30190         0.55143
C         35.39394        44.44683         0.21858
C         34.08238        43.73591         0.46368
C         35.38676        45.89616         0.69322
C         34.10638        46.60136         0.31677
C         35.42008        48.76726         0.15125
C         34.11279        48.09535         0.53012
C         35.38550        50.29453         0.11271
C         34.09830        50.96388         0.28909
C         35.31339        53.10422         0.55986
C         34.08107        52.37524         0.45673
C         35.27801        54.52810         0.61412
C         34.03559        55.18251         0.61374
C         37.57494        15.98483         1.93653
C         36.41411        16.60880         2.27582
C         37.62212        18.79368         2.61081
C         36.27370        18.08956         2.52666
C         37.67542        20.24711         2.37972
C         36.59915        20.89973         1.76524
C         37.80065        23.07598         1.87488
C         36.63543        22.32924         1.53899
C         37.84420        24.49383         1.68722
C         36.67691        25.17623         1.25475
C         37.90845        27.32899         1.28529
C         36.69110        26.60300         1.13177
C         37.92647        28.75400         1.14575
C         36.72201        29.45422         0.85721
C         37.92477        31.57222         1.03761
C         36.72993        30.87714         0.77114
C         37.86157        33.04550         1.12369
C         36.78998        33.71607         0.28601
C         37.93114        35.95609         0.94141
C         36.72781        35.22067         0.49199
C         37.86499        37.34618         1.07463
C         36.64462        38.08131         1.05656
C         37.84466        40.25364         1.14163
C         36.62103        39.48965         1.05306
C         37.85214        41.63774         1.04580
C         36.60017        42.34830         0.83340
C         37.79870        44.49344         1.25688
C         36.60011        43.72410         0.75520
C         37.87135        45.93150         0.84329
C         36.68832        46.61563         0.23868
C         37.85988        48.83785         0.61468
C         36.66605        48.10716         0.50341
C         37.84395        50.29115         0.55900
C         36.63556        51.00346         0.41379
C         37.80287        53.11338         0.79471
C         36.59076        52.41425         0.59137
C         37.76843        54.57938         1.13601
C         36.52196        55.28082         0.65713
C         37.79144        57.35446         0.41012
C         36.57241        56.63565         0.39940
C         39.74880        14.88424         0.32882
C         39.90268        16.12497         1.00287
C         38.82875        16.66668         1.79772
C         40.24013        18.72431         2.31971
C         38.93067        17.99598         2.40256
C         40.28488        20.18643         2.67434
C         38.92062        20.97397         2.73753
C         39.95815        23.25155         2.93909
C         38.91298        22.44110         2.51206
C         40.17855        24.58599         2.48163
C         39.04438        25.23916         1.92459
C         40.35225        27.31423         1.74230
C         39.10506        26.63462         1.64004
C         40.37860        28.75143         1.53164
C         39.14888        29.46815         1.33034
C         40.36663        31.63672         1.49859
C         39.13970        30.89458         1.31449
C         40.39251        33.05752         1.49074
C         39.12406        33.80491         1.41762
C         40.38745        35.91809         1.15847
C         39.16887        35.25304         1.13435
C         40.38614        37.37894         0.79764
C         39.13871        38.06238         1.30326
C         40.40212        40.26493         1.10826
C         39.12767        39.55177         1.34258
C         40.38765        41.66405         0.96194
C         39.11208        42.38548         0.98982
C         40.30190        44.55668         0.69741
C         39.09026        43.76346         0.97651
C         40.34629        45.99825         0.94896
C         39.06237        46.71754         1.29824
C         40.31440        48.86005         0.87924
C         39.08716        48.16049         0.85887
C         40.30776        50.29980         0.81871
C         39.06850        51.00351         0.72575
C         40.28522        53.15639         0.88926
C         39.04229        52.43124         0.80154
C         40.26336        54.59960         0.83354
C         39.05071        55.29653         0.79171
C         40.28618        57.43082         0.45175
C         39.02336        56.71030         0.56415
C         40.36016        58.74691        -0.00292
C         41.95461        15.07951        -0.64149
C         40.75708        14.37621        -0.47823
C         42.15358        16.30147         0.02005
C         41.13180        16.83432         0.82244
C         42.54027        18.94263         1.16146
C         41.35735        18.11858         1.52916
C         42.65262        20.28731         1.65276
C         41.57497        20.86904         2.38630
C         42.85060        22.99505         2.40502
C         41.80029        22.16340         2.84802
C         42.74613        24.44704         2.75819
C         41.45972        25.22600         2.53031
C         42.83253        27.25290         1.96358
C         41.52295        26.57176         2.10054
C         42.84414        28.72176         1.63692
C         41.58259        29.47878         1.56461
C         42.81844        31.65963         1.59612
C         41.59800        30.91616         1.58262
C         42.84749        33.06102         1.46840
C         41.61172        33.77791         1.44196
C         42.84376        35.94272         1.24736
C         41.62473        35.21915         1.30635
C         42.85193        37.39574         1.20817
C         41.64965        38.11215         1.14862
C         42.86755        40.25439         1.12874
C         41.62985        39.54207         1.13774
C         42.85758        41.67657         1.03682
C         41.62479        42.35959         0.90360
C         42.86384        44.57503         0.93728
C         41.64200        43.80748         0.65148
C         42.80303        45.96508         0.97303
C         41.54959        46.69213         0.92722
C         42.77805        48.87919         0.96896
C         41.55807        48.15116         0.97590
C         42.76720        50.31021         0.91355
C         41.53110        51.02161         0.89000
C         42.76068        53.18727         0.94460
C         41.51588        52.46283         0.90935
C         42.76023        54.60315         0.92541
C         41.51207        55.32952         0.83044
C         42.74555        57.53891         0.98957
C         41.50570        56.72051         0.73035
C         42.78767        58.77600         0.12655
C         41.62512        59.36572        -0.25785
C         44.68088        16.18055        -0.07111
C         43.45161        17.04162        -0.22777
C         44.89676        18.97855         0.51952
C         43.61287        18.33308         0.54313
C         45.02611        20.33550         0.94053
C         43.87932        21.01258         1.48939
C         45.38950        23.01809         2.06360
C         43.99503        22.38736         1.86688
C         45.29523        24.55478         2.22912
C         44.03911        25.17964         2.72634
C         45.30165        27.41060         2.50180
C         43.99202        26.69877         2.80493
C         45.08263        28.83355         2.61035
C         44.02880        29.49347         2.06074
C         45.36898        31.63010         1.33314
C         44.08554        30.89855         1.58604
C         45.29780        33.09596         1.12866
C         44.09914        33.78608         1.25597
C         45.28743        35.97567         1.05029
C         44.08867        35.24158         1.17760
C         45.32532        37.40344         1.10042
C         44.09831        38.11484         1.19694
C         45.34076        40.24822         1.04772
C         44.10324        39.53915         1.14090
C         45.33338        41.68224         1.01593
C         44.10451        42.39835         1.02120
C         45.33398        44.51774         1.08066
C         44.10650        43.83252         1.04657
C         45.32739        45.96883         1.34123
C         44.02171        46.73369         1.28850
C         45.24338        48.90214         0.94472
C         44.04448        48.19793         1.05045
C         45.24267        50.32813         0.78659
C         44.00459        51.02995         0.85531
C         45.24057        53.14383         0.81635
C         44.00500        52.45675         0.89323
C         45.27289        54.59140         1.22578
C         43.98901        55.33775         0.95294
C         45.26067        57.41977         1.06394
C         44.01694        56.72847         0.97270
C         45.89356        16.76537         0.02876
C         47.28898        18.85899         0.01564
C         46.04084        18.20667         0.16463
C         47.35598        20.27677         0.20154
C         46.26120        21.02745         0.73977
C         47.52149        23.10800         0.51197
C         46.42018        22.43495         1.06601
C         47.93652        24.44072         0.96838
C         46.42267        25.33503         2.28664
C         47.81530        27.47275         1.81276
C         46.52184        26.80260         2.24073
C         47.97807        28.89844         1.86495
C         46.95036        29.85857         2.23581
C         47.84504        31.58172         0.80940
C         46.71183        31.01268         1.53456
C         47.78677        33.05960         0.45232
C         46.48166        33.77808         0.59061
C         47.81083        35.98092         0.67014
C         46.50978        35.28659         0.62741
C         47.80650        37.39303         0.78343
C         46.56551        38.10829         0.94873
C         47.81412        40.25194         0.81321
C         46.57315        39.53425         0.95436
C         47.81126        41.68340         0.80999
C         46.57601        42.38719         0.93232
C         47.79234        44.51930         0.74755
C         46.57138        43.81526         0.94754
C         47.71941        45.97400         0.50751
C         46.59609        46.73148         1.13319
C         47.75129        48.92584         0.42041
C         46.56000        48.21963         0.96959
C         47.70929        50.33521         0.30947
C         46.45942        51.04141         0.54146
C         47.61522        53.23322         0.01736
C         46.43046        52.45435         0.53525
C         47.69994        54.65457         0.54087
C         46.52471        55.34409         0.84068
C         46.46939        56.76227         0.97007
C         49.61220        18.83956        -0.78154
C         48.46588        18.17131        -0.42860
C         49.67109        20.26696        -0.74520
C         48.53752        20.94678        -0.22227
C         49.45555        22.99126        -1.07301
C         48.48812        22.36650        -0.28184
C         49.57231        25.14702        -0.68196
C         48.68047        25.47235         0.42382
C         50.10141        27.43358         0.74245
C         48.87073        26.77941         1.08078
C         50.27548        28.79790         1.01259
C         49.14481        29.55376         1.36957
C         50.29907        31.66397         0.69540
C         49.14190        30.95766         1.05788
C         50.25257        33.09692         0.48728
C         49.04125        33.81342         0.49408
C         50.26262        35.96405         0.49450
C         49.02090        35.25150         0.55382
C         50.26219        37.39150         0.52500
C         49.04025        38.10812         0.67029
C         50.26974        40.25709         0.49175
C         49.03823        39.54173         0.66558
C         50.25257        41.68201         0.51833
C         49.04570        42.40289         0.66801
C         50.21551        44.61377         0.32304
C         49.02217        43.85216         0.59097
C         50.21916        46.00199         0.09033
C         48.94236        46.73868         0.11018
C         50.16178        48.90060        -0.06908
C         48.95242        48.21713         0.21040
C         50.12346        50.30903        -0.18804
C         48.91620        51.04138         0.00155
C         50.10858        53.21557        -0.09053
C         48.92720        52.48309         0.01507
C         50.10848        54.62836         0.13685
C         48.96317        55.30899         0.47420
C         52.03851        20.39287        -1.54491
C         50.81779        21.01883        -1.19000
C         51.88059        23.25840        -1.68860
C         50.73606        22.44419        -1.35147
C         51.89109        24.77327        -1.57072
C         50.90062        25.47190        -0.68008
C         52.52978        27.37588        -0.26272
C         51.09041        26.91749        -0.31322
C         52.76180        28.73844         0.26115
C         51.55329        29.50869         0.80680
C         52.70761        31.64669         0.24119
C         51.54396        30.96458         0.63087
C         52.69642        33.08868         0.17999
C         51.49186        33.80907         0.35836
C         52.71595        35.94821         0.21788
C         51.48251        35.23926         0.35105
C         52.69389        37.37585         0.17919
C         51.49969        38.10476         0.35473
C         52.72669        40.25973         0.08676
C         51.50177        39.54573         0.32211
C         52.75356        41.68554         0.05051
C         51.53258        42.40721         0.46856
C         52.68626        44.61668        -0.17529
C         51.50996        43.92303         0.35207
C         52.66155        46.00209        -0.30528
C         51.42561        46.73144        -0.12013
C         52.62049        48.85305        -0.48600
C         51.41047        48.16023        -0.25182
C         52.64030        50.29261        -0.55931
C         51.35206        51.00945        -0.58885
C         52.67465        53.16709        -0.31807
C         51.36506        52.54514        -0.49525
C         53.11719        21.15075        -1.92556
C         54.35886        23.27516        -2.16468
C         53.10112        22.58308        -1.93747
C         54.38976        24.76861        -2.44495
C         53.19113        25.51173        -1.81694
C         54.74692        27.47077        -1.31939
C         53.46554        26.80364        -1.09884
C         54.89387        28.82814        -1.00885
C         53.83860        29.53763        -0.33552
C         54.93629        31.69971        -0.92192
C         53.85548        30.92057        -0.21642
C         55.11850        33.08494        -0.36591
C         53.92679        33.79800         0.00061
C         55.22398        35.89588         0.12207
C         53.92850        35.20357         0.11151
C         55.20834        37.33557        -0.23943
C         53.92306        38.09504        -0.19942
C         55.14084        40.26498        -0.38027
C         53.94891        39.57080        -0.14331
C         55.14398        41.68923        -0.52246
C         53.91178        42.38217        -0.30437
C         55.14889        44.55784        -0.68887
C         53.83648        43.82704        -0.73678
C         55.12024        45.99798        -0.74962
C         53.89014        46.71235        -0.57846
C         55.09369        48.83506        -0.72209
C         53.87349        48.13476        -0.62292
C         55.13847        50.32597        -0.94246
C         53.82670        51.01962        -0.64927
C         53.81725        52.44626        -0.51307
C         56.78596        23.22231        -2.53092
C         55.55190        22.58187        -2.29800
C         56.91618        24.61345        -2.45881
C         55.75122        25.39179        -2.17113
C         57.16734        27.40417        -1.93194
C         55.88001        26.74534        -1.84298
C         57.28773        28.78998        -1.66822
C         56.13131        29.53305        -1.26942
C         57.45389        31.60601        -1.19986
C         56.20973        30.91795        -1.08222
C         57.51508        32.99542        -0.92634
C         56.36746        33.70271        -0.47570
C         57.67102        35.88407        -0.71222
C         56.50146        35.14051        -0.15284
C         57.68376        37.31462        -0.69073
C         56.51163        38.05495        -0.20324
C         57.61227        40.18974        -1.01565
C         56.43794        39.54978        -0.37670
C         57.56269        41.69984        -1.24591
C         56.33689        42.41593        -0.83559
C         57.54476        44.50959        -1.50380
C         56.34446        43.84638        -0.83583
C         57.59958        46.07659        -1.42134
C         56.32723        46.71139        -0.89384
C         57.56459        48.81168        -0.51233
C         56.32551        48.12538        -0.75201
C         57.49606        50.20190        -0.15661
C         56.34965        50.92170        -0.27848
C         59.36002        24.54965        -2.97174
C         58.21523        25.26372        -2.58389
C         59.58409        27.32757        -2.49588
C         58.32271        26.66693        -2.34135
C         59.68848        28.74807        -2.25648
C         58.54167        29.47632        -1.82897
C         59.88337        31.57502        -1.74352
C         58.63377        30.87718        -1.56864
C         59.98091        32.96401        -1.49596
C         58.84655        33.69331        -0.82739
C         59.90264        35.86529        -1.87238
C         58.76491        35.16906        -1.16215
C         60.01909        37.33997        -1.52680
C         58.87698        38.03925        -1.00832
C         60.18813        40.18754        -1.01695
C         58.87928        39.45801        -0.98139
C         60.08759        41.69193        -1.18967
C         58.87135        42.40719        -1.24234
C         60.06866        44.52631        -1.02473
C         58.86066        43.81800        -1.19419
C         60.04402        45.96837        -0.72868
C         58.83026        46.68380        -0.78236
C         59.99470        48.68739         0.01173
C         58.79779        48.06355        -0.42325
C         60.59216        25.19548        -3.11486
C         60.70740        26.55948        -2.88338
C         60.90764        29.46252        -2.44779
C         61.00002        30.81445        -2.21773
C         61.18578        33.72739        -1.65514
C         61.18563        35.08873        -1.72234
C         61.08719        38.11315        -2.07033
C         61.15847        39.47592        -1.92440
C         61.28631        42.41907        -1.12902
C         61.27899        43.80549        -1.03395
C         61.20814        46.62200        -0.27776
C         61.18098        47.97107         0.07974
O         27.71098        32.50835         1.28647
O         43.52984        24.62332         4.01593
O         46.07631        29.55372         3.27298
O         39.20744        38.72987         2.59092
O         51.20379        51.85052        -1.78027
O         46.23910        34.55458        -0.63278
O         51.77507        43.24421         1.65924
O         33.69043        31.08729        -1.05641
O         29.86208        48.35005        -2.03434
O         44.67802        30.92115         0.21452
O         57.33711        40.75901        -2.34652
O         52.08737        25.57971        -2.80834
O         23.98480        44.17299        -2.55209
O         43.11173        27.69169         0.60142
O         24.29731        41.89106         0.29862
O         56.74574        38.95053         0.93481
O         26.38980        43.06508         1.19599
O         30.07612        27.84965         1.62129
O         23.15822        31.36701        -0.71559
O         52.59627        28.96198         1.69623
O         32.30940        29.21252         2.00543
O         57.18994        44.14738        -2.83506
O         56.12943        35.53227         1.21635
O         44.62913        46.33035         2.57058
O         47.69002        32.02396        -0.57772
O         38.34385        18.21705         3.73245
O         36.15040        35.88630        -0.71323
O         49.10346        24.22433        -1.60942
O         40.95021        44.18805        -0.58043
O         54.49166        37.57091        -1.49015
O         41.29384        17.96417         3.00608
O         47.63083        24.64685         2.31924
O         26.39621        29.94982         1.05445
O         35.42246        49.46208        -1.12632
O         47.95000        46.29849        -0.91084
O         25.96241        24.38455         0.07437
O         46.94319        47.57642         2.26356
O         38.10471        33.52595         2.47298
O         40.93194        22.72125         3.79205
O         39.62371        20.50805         3.91994
O         39.01181        46.78611         2.77952
H         38.69102        45.89939         3.09378
O         37.22434        33.50298        -1.08567
H         36.74181        34.16018        -1.63779
O         35.51201        44.45061        -1.23618
H         35.56777        43.51903        -1.53568
O         27.14095        33.29509        -2.24615
H         27.85942        33.88733        -2.55393
O         47.30176        53.40528        -1.42163
H         48.11999        53.71834        -1.86426
O         37.64290        44.48426         2.75104
H         36.75666        44.90375         2.91255
O         31.45129        47.20897         1.62212
H         31.04962        46.48724         2.15244
O         43.40171        17.43705        -1.64294
H         44.25951        17.86180        -1.85765
O         59.19567        33.66334         0.61468
H         58.46018        34.09331         1.10455
O         50.62521        27.64439        -1.52613
H         51.00615        27.16119        -2.30165
O         30.77170        36.26954        -1.64745
H         31.05852        35.45961        -2.11971
O         54.26136        24.88428        -3.89655
H         53.29635        24.97275        -4.08488
O         40.27933        37.45248        -0.66608
H         41.04481        36.97430        -1.04977
O         35.67865        18.22660         3.85327
H         36.40042        18.04983         4.49812
O         31.17900        52.13910         1.87497
H         30.31338        51.67861         1.91059
O         60.75387        40.03055         0.35127
H         60.81858        39.06739         0.52953
O         27.48963        39.96980         1.66058
H         26.69811        40.53440         1.80334
O         30.24616        36.89344         1.90648
H         29.93130        37.68969         2.38348
O         45.34257        54.52674         2.70552
H         45.20222        55.43877         3.04081
O         53.52338        43.73913        -2.19032
H         54.37658        43.61262        -2.66481
O         45.79560        22.49416         3.35892
H         45.19075        22.87882         4.03138
O         54.43079        31.91691        -2.29914
H         54.32391        31.03414        -2.71420
O         59.57762        35.81242        -3.31615
H         58.81077        36.40516        -3.46932
O         32.47479        22.32178        -1.95022
H         31.79137        21.82605        -2.45079
O         29.80157        29.38091        -1.64561
H         29.18217        29.91296        -2.18845
O         55.35768        50.51645        -2.39074
H         54.63432        50.04996        -2.86142
O         32.27158        47.53958        -1.92576
H         31.49951        47.62587        -2.53543
O         37.68200        54.62587         2.61776
H         37.66468        55.57267         2.87418
O         35.38959        45.88247         2.15187
H         35.06543        46.77488         2.44551
O         42.62591        58.03731         2.37934
H         41.80427        58.57244         2.41839
O         27.73160        46.23491         1.43442
H         27.01144        45.65026         1.75890
O         25.66661        38.40851        -3.42145
H         25.68119        37.57823        -3.96135
O         24.99881        33.48830         0.70916
H         24.21422        32.96070         0.96621
O         34.02655        48.25625         2.00145
H         33.09727        48.00324         2.23904
O         24.97951        35.92098        -4.15185
H         25.27281        35.00012        -4.32336
O         57.67172        46.54431        -2.79868
H         57.43803        45.72772        -3.33724
O         36.82539        46.56216        -1.21064
H         36.03401        46.98010        -1.61380
O         35.20908        37.03113         2.63372
H         35.23384        37.88754         3.11013
O         30.58311        40.12604        -1.59281
H         30.67718        39.18844        -1.87138
O         43.66394        27.10358         4.15788
H         43.47339        26.27481         4.66587
H         23.42068        23.36246        -2.48524
H         21.37294        24.65966        -3.01296
H         21.29640        27.09294        -2.64222
H         21.83291        28.82325        -3.32213
H         21.90139        31.12666        -3.82175
H         21.79613        33.27001        -3.85897
H         22.19986        35.62295        -4.39862
H         21.61699        37.39380        -3.23574
H         21.40810        39.81720        -2.91685
H         21.14292        41.70279        -2.30340
H         20.86948        43.95803        -1.28089
H         20.81805        46.21982        -1.44385
H         23.02656        49.81999        -0.68972
H         20.86351        48.65545        -0.89133
H         25.23529        22.47430        -2.55388
H         24.61795        50.76230        -0.99550
H         27.31141        21.31308        -2.09011
H         26.71275        51.95979        -0.83886
H         30.70366        19.08218        -0.39295
H         28.73676        20.28944        -1.15425
H         30.35191        54.12809        -0.21367
H         28.38613        52.90478        -0.93198
H         32.26061        18.13468         0.17659
H         31.89151        55.02157         0.59485
H         34.10050        16.98972         1.31171
H         33.98798        56.27682         0.69355
H         37.53833        14.90301         1.74128
H         35.51255        15.99723         2.42375
H         37.75363        58.43651         0.22638
H         35.65713        57.18596         0.13891
H         38.81844        14.31175         0.43449
H         39.44983        59.29309        -0.28357
H         42.74019        14.67871        -1.29627
H         40.61017        13.41869        -0.99677
H         43.75100        59.26424        -0.07788
H         41.64038        60.32256        -0.79993
H         44.59354        15.08667        -0.14247
H         45.25471        58.51511         1.14844
H         46.79703        16.13949         0.05792
H         47.38924        57.36025         0.90880
H         50.47540        18.26348        -1.14177
H         48.44228        17.07727        -0.52296
H         51.05497        55.18158         0.08017
H         49.04134        56.37472         0.72865
H         52.13728        19.30018        -1.50237
H         52.74660        54.22720        -0.03915
H         54.03507        20.61715        -2.19760
H         54.77859        52.97651        -0.47427
H         57.66897        22.58740        -2.67962
H         55.58348        21.48799        -2.21450
H         58.38451        50.70012         0.25543
H         56.34757        51.97680         0.02938
H         59.30294        23.47330        -3.18058
H         60.00026        49.74631         0.29983
H         61.47543        24.61716        -3.41925
H         61.68943        27.03466        -3.00503
H         61.80330        28.93068        -2.79546
H         61.96247        31.31648        -2.38597
H         62.14970        33.19897        -1.72217
H         62.14090        35.62799        -1.80411
H         61.85462        37.59797        -2.66726
H         61.99190        40.03648        -2.37137
H         62.24379        41.88096        -1.09709
H         62.24055        44.32944        -0.95341
H         62.15667        46.07600        -0.19468
H         62.10117        48.46448         0.42147
