         424
 CSIRO Nanostructure Databank - Neutral Graphene Oxide Data Set
C          1.23777         3.65282        -1.52154
C          0.02279         4.37808        -1.45524
C          1.25056         6.49473        -1.93005
C          0.00069         5.74502        -1.54696
C          1.23928         7.96599        -1.58153
C          0.07280         8.70852        -1.73600
C          1.21223        10.79553        -1.18031
C          0.05505        10.09636        -1.53387
C          1.20467        12.25511        -1.02634
C          0.01240        13.01534        -1.18030
C          1.18933        15.09578        -0.66765
C          0.00077        14.37813        -0.97498
C          1.19422        16.52583        -0.48629
C         -0.02759        17.27511        -0.49117
C          1.17482        19.38452        -0.19125
C         -0.03953        18.62983        -0.30528
C          1.15339        20.79293        -0.08898
C         -0.04036        21.56188        -0.02494
C          1.20159        23.59745         0.58074
C         -0.01761        22.91905         0.21798
C          1.18219        24.99709         1.06836
C         -0.02654        25.71034         1.27677
C          1.15205        27.77210         1.85091
C         -0.01629        27.09178         1.58258
C          1.18488        29.20549         2.35787
C         -0.06199        30.01158         2.06631
C          1.09312        32.00564         1.16085
C         -0.08413        31.27991         1.58162
C          1.09523        33.28476         0.60178
C         -0.11433        34.05394         0.44523
C          1.12157        35.96656        -0.45584
C         -0.10174        35.32873        -0.04400
C          1.11365        37.30789        -0.95826
C          3.69910         3.62953        -1.36343
C          2.47947         4.33404        -1.47931
C          3.68266         6.46879        -1.21505
C          2.49814         5.77201        -1.48571
C          3.67393         7.90980        -1.08717
C          2.44497         8.63552        -1.22760
C          3.63491        10.71519        -0.65446
C          2.42858        10.05203        -1.01739
C          3.59252        12.15773        -0.36527
C          2.38673        12.94125        -0.70847
C          3.63738        15.07755        -0.33446
C          2.40931        14.36509        -0.57763
C          3.63120        16.45472        -0.16056
C          2.41402        17.21420        -0.27135
C          3.65511        19.37174        -0.16624
C          2.42550        18.66481        -0.20722
C          3.69781        20.77549         0.01296
C          2.43385        21.57837        -0.19899
C          3.65932        23.52158         1.06582
C          2.38979        22.89834         0.52677
C          3.65651        25.01612         0.74632
C          2.39235        25.65887         1.26061
C          3.67100        27.78380         1.57731
C          2.43929        26.98873         1.96192
C          3.66906        29.15200         1.58137
C          2.44643        29.93133         1.90089
C          3.54831        31.73568         0.48673
C          2.39002        31.32470         1.36827
C          3.53924        33.19945         0.16647
C          2.35376        33.89984         0.15292
C          3.55166        35.87944        -0.80195
C          2.33090        35.25972        -0.36959
C          3.53099        37.23657        -1.28442
C          2.27352        37.92378        -1.35110
C          6.14297         3.60738        -1.13028
C          4.92011         4.31097        -1.18313
C          6.11685         6.43509        -0.76459
C          4.91591         5.74906        -1.03858
C          6.10704         7.86753        -0.63625
C          4.87813         8.59462        -0.79034
C          6.10757        10.72114        -0.39697
C          4.85707        10.01829        -0.59079
C          6.15291        12.12532        -0.26941
C          4.89520        12.88485        -0.18251
C          6.17899        15.01618        -0.03556
C          4.94072        14.34222        -0.57799
C          6.17726        16.43072         0.10589
C          4.88026        17.20578         0.26527
C          6.19460        19.33129        -0.21730
C          4.90595        18.55623        -0.45742
C          6.19456        20.80889         0.00150
C          4.90534        21.50051         0.18718
C          6.15180        23.56512         0.76476
C          4.93803        22.85896         0.59453
C          6.15860        24.97458         1.07979
C          4.93482        25.70087         1.15966
C          6.15537        27.80783         1.52734
C          4.92235        27.07794         1.40463
C          6.16675        29.22484         1.57704
C          4.90450        29.90434         1.40162
C          6.06060        32.12310         1.17163
C          4.86121        31.23144         1.03523
C          6.07573        33.22992         0.14106
C          4.79175        33.70429        -0.49278
C          5.98624        35.81758        -1.10401
C          4.77606        35.18293        -0.75452
C          5.96383        37.16969        -1.60067
C          4.72337        37.84544        -1.69671
C          8.59383         3.57790        -0.91080
C          7.36807         4.27735        -0.91979
C          8.57194         6.35992        -0.42064
C          7.36237         5.70334        -0.69001
C          8.53313         7.78566         0.05936
C          7.31852         8.56999        -0.39662
C          8.59432        10.71629        -0.32954
C          7.32397         9.96958        -0.37468
C          8.59612        12.15274        -0.02496
C          7.38006        12.85026        -0.07184
C          8.59444        14.96797         0.65566
C          7.35406        14.28235         0.12251
C          8.64283        16.43899         0.33460
C          7.40770        17.10942         0.20197
C          8.66873        19.32299         0.42629
C          7.38388        18.58254         0.29401
C          8.66507        20.79933         0.32766
C          7.44216        21.49250         0.40890
C          8.65809        23.55220         0.88646
C          7.42657        22.88148         0.65661
C          8.66155        24.96793         1.22053
C          7.38448        25.66662         1.27761
C          8.58642        27.79189         1.69590
C          7.37673        27.06889         1.49788
C          8.58851        29.17749         1.81126
C          7.39371        29.98134         1.60912
C          8.56836        32.15521         1.01762
C          7.38295        31.37788         1.31327
C          8.52665        33.33008         0.20095
C          7.25294        33.87022        -0.21053
C          8.44110        35.79513        -1.23506
C          7.23287        35.14073        -0.91540
C          8.40769        37.11375        -1.83013
C          7.17810        37.77591        -1.99369
C         11.05421         3.55126        -0.75644
C          9.81965         4.24623        -0.71170
C         11.05368         6.34865        -0.26038
C          9.81181         5.66434        -0.44513
C         11.05953         7.79047        -0.06887
C          9.85044         8.48487        -0.09541
C         11.05396        10.63111         0.44728
C          9.87841         9.95030        -0.19985
C         11.06028        12.11569         0.26202
C          9.86190        12.83165         0.17478
C         11.11231        14.95930         0.32143
C          9.87442        14.25200         0.34083
C         11.12065        16.41994         0.33938
C          9.89073        17.13461         0.36647
C         11.13828        19.27328         0.32059
C          9.94001        18.57612         0.35008
C         11.12281        20.75387        -0.05252
C          9.88300        21.48389         0.40611
C         11.15093        23.52440         0.98014
C          9.88942        22.85942         0.72488
C         11.14007        24.87203         1.64676
C          9.84534        25.62119         1.47932
C         11.06140        27.79558         1.19357
C          9.89614        27.06607         1.89871
C         11.07098        29.24250         1.63630
C          9.89304        29.76361         2.06757
C         11.07379        32.17702         0.86500
C          9.85287        31.80406         1.49146
C         11.01027        33.34289         0.04440
C          9.74046        33.95355        -0.21206
C         10.92254        35.82497        -1.30412
C          9.69958        35.18014        -0.94548
C         10.86497        37.11434        -1.98258
C          9.62720        37.72882        -2.21016
C         13.52056         3.53696        -0.70701
C         12.27828         4.22641        -0.62342
C         13.52400         6.35661        -0.36299
C         12.27798         5.65342        -0.40195
C         13.53811         7.77253        -0.14603
C         12.31769         8.49106         0.00776
C         13.54148        10.62920         0.11994
C         12.35823         9.92999         0.11876
C         13.54982        12.11960        -0.11808
C         12.35124        12.80158         0.58597
C         13.59818        14.97451        -0.06350
C         12.32064        14.26596         0.29571
C         13.59975        16.41361         0.38270
C         12.35705        17.11539         0.39863
C         13.60784        19.22120         0.59103
C         12.37984        18.55364         0.43015
C         13.64457        20.69843         0.57335
C         12.40923        21.49082         0.29641
C         13.60960        23.55127         1.10580
C         12.35551        22.87595         0.82481
C         13.61171        24.97869         1.26117
C         12.38764        25.68328         1.34585
C         13.60098        27.80430         1.45963
C         12.38494        27.08693         1.40501
C         13.60450        29.29560         1.59499
C         12.31573        30.07000         1.62275
C         13.47379        31.95297         0.40728
C         12.30123        31.44825         1.02306
C         13.46279        33.23157        -0.24746
C         12.22235        33.93326        -0.42053
C         13.43348        36.00193        -1.21030
C         12.15951        35.21816        -1.03106
C         13.31366        37.10760        -2.23667
C         12.06124        37.69714        -2.46516
C         15.98826         3.52038        -0.66703
C         14.74254         4.21590        -0.63965
C         15.98472         6.36276        -0.51814
C         14.75220         5.65572        -0.50889
C         15.97626         7.78098        -0.33911
C         14.78350         8.46118        -0.09554
C         16.07531        10.65535         0.11423
C         14.81404         9.88453         0.40979
C         16.07843        12.06976         0.30306
C         14.83788        12.81616         0.25661
C         16.05264        14.93256         0.55019
C         14.84818        14.20912         0.31578
C         16.06504        16.34182         0.61195
C         14.81785        17.07860         0.55796
C         16.06671        19.17886         0.94274
C         14.83382        18.50862         0.72931
C         16.07483        20.60666         1.32201
C         14.78784        21.37830         1.24306
C         16.06988        23.52888         1.30995
C         14.82414        22.85329         1.18350
C         16.08420        24.95812         1.30127
C         14.84986        25.68118         1.29297
C         16.09857        27.80239         1.35073
C         14.83853        27.10739         1.37401
C         16.11745        29.31252         1.44171
C         14.80911        29.97471         1.07630
C         15.90950        31.66168        -0.33355
C         14.72533        31.19851         0.47977
C         15.89156        33.10822        -0.73436
C         14.67579        33.79903        -0.79921
C         15.74660        35.62107        -2.06992
C         14.64868        35.12322        -1.41203
C         15.71637        36.92687        -2.72144
C         14.47104        37.61032        -2.83010
C         18.45151         3.48434        -0.49189
C         17.20272         4.19682        -0.58085
C         18.46531         6.30658        -0.44848
C         17.23004         5.64072        -0.55274
C         18.53735         7.77415        -0.54459
C         17.22946         8.54567        -0.47603
C         18.52829        10.64897        -0.02524
C         17.27265         9.97224        -0.08700
C         18.53558        12.05626         0.24234
C         17.30682        12.74855         0.41016
C         18.57042        14.92859         0.60506
C         17.30410        14.16995         0.90966
C         18.55427        16.34917         0.68086
C         17.30151        17.06147         0.74666
C         18.54338        19.21149         0.98629
C         17.29844        18.47722         0.89208
C         18.54601        20.64612         1.15441
C         17.33176        21.37001         1.29337
C         18.54938        23.51343         1.36670
C         17.30880        22.78836         1.34781
C         18.55015        24.94708         1.40999
C         17.32185        25.67036         1.37368
C         18.59068        27.88050         1.58064
C         17.29885        27.10795         1.38361
C         18.58154        29.24424         0.91751
C         17.32326        29.92816         0.77070
C         18.48757        31.96925        -0.04907
C         17.23648        31.16170         0.17674
C         18.33638        33.06074        -1.08490
C         17.09388        33.64153        -1.30586
C         18.22850        35.52857        -2.54127
C         16.95646        34.74951        -2.31876
C         18.15459        36.82793        -3.10545
C         16.87883        37.46947        -3.25945
C         19.63406         4.14384        -0.30819
C         20.87418         6.28480        -0.02025
C         19.67777         5.58086        -0.26019
C         20.90966         7.68742         0.06556
C         19.78145         8.47268        -0.18087
C         20.96586        10.64797         0.04616
C         19.76943         9.91991        -0.08053
C         20.97000        12.03547         0.21149
C         19.78123        12.76754         0.31710
C         20.98092        14.97663         0.35427
C         19.77912        14.22772         0.44004
C         20.98126        16.35229         0.48912
C         19.77779        17.07734         0.66478
C         20.98353        19.25891         0.89477
C         19.76695        18.51772         0.84492
C         20.99203        20.62337         1.05797
C         19.78180        21.36376         1.18358
C         21.00219        23.52993         1.37026
C         19.77753        22.79182         1.31754
C         21.01411        24.89738         1.38713
C         19.80252        25.66174         1.38302
C         21.01634        27.77121         0.94033
C         19.82869        27.07019         1.27774
C         20.99350        29.08641         0.53363
C         19.76140        29.81533         0.42734
C         20.80112        31.64533        -0.89549
C         19.72252        31.11369        -0.22229
C         20.72814        32.90331        -1.55241
C         19.53744        33.60863        -1.66963
C         20.65237        35.61374        -2.69684
C         19.47923        34.91584        -2.33383
C         20.57834        36.88248        -3.27374
C         19.34446        37.49395        -3.47623
O          9.48853        10.43543        -1.51562
O          2.74536        31.08829         2.77604
O          4.09817        12.54237         0.98687
O         17.89446         8.30979        -1.76488
O         13.42377        21.30465        -0.76354
O          9.91492        31.04115         2.65173
O         15.21122        20.83696         2.52395
O          7.84526        18.98561         1.63309
O         13.10104        29.86578         2.85385
O          6.43959        20.20603        -1.36290
O         10.20611        27.10995         3.33026
H          9.38821        26.88573         3.82257
O         11.24877        24.59183         3.09120
H         11.15532        25.46684         3.54376
O         14.84768         9.73841         1.88587
H         13.98401         9.36091         2.15966
O          2.51188        21.96980        -1.63453
H          3.12516        22.73629        -1.69085
O         10.89495        10.39647         1.89017
H         11.56206        10.97748         2.33290
O          3.63495        23.39543         2.51167
H          3.64165        22.44287         2.73974
O         10.78729        27.73685        -0.23307
H         11.56733        28.08022        -0.71613
O          4.86646        18.23136        -1.86948
H          5.16332        19.04076        -2.34753
O         13.60881        15.06249        -1.53890
H         14.35091        15.65297        -1.78879
O          2.59391        26.69878         3.40357
H          2.21443        27.47549         3.88698
O         13.31257        12.31818        -1.53640
H         14.10674        12.02961        -2.03129
O          5.09730        14.32389        -2.03403
H          5.14422        15.25465        -2.34213
O          8.48049        14.90386         2.14578
H          7.82775        15.58636         2.41426
O          5.86224        32.82686         2.47580
H          5.51101        32.17044         3.11597
O          1.29240         6.45686        -3.41297
H          1.30458         5.51005        -3.67107
O          4.73957        17.50458         1.68220
H          4.65807        16.65729         2.16790
O         15.72836        30.95174        -1.62932
H         16.23699        31.44374        -2.31136
O         16.27634        29.61783         2.86265
H         17.07889        29.12948         3.17926
O          3.60712        25.09235        -0.71821
H          3.63960        26.03859        -0.97383
O          4.78020        33.07643        -1.86661
H          4.14906        33.59681        -2.41038
O         16.68350        34.05451        -3.59848
H         16.59140        34.75027        -4.28452
O         12.59808        12.61553         2.03504
H         12.00146        13.23058         2.51464
O         13.64387        36.68610         0.07762
H         14.43482        37.25721        -0.02471
O         18.64549        28.14879         3.04506
H         19.47236        28.65002         3.21425
O         11.01431        20.75351        -1.50857
H         11.93818        20.77218        -1.85430
O          3.32516        31.04025        -0.78889
H          3.92926        31.47451        -1.44481
O         17.27649        14.04745         2.38808
H         17.21447        14.95694         2.75119
O          8.33290         7.69190         1.53108
H          9.11423         7.22931         1.90342
O          1.28212        29.10898         3.82040
H          1.66398        29.96817         4.11741
O         18.70888        32.68405         1.23127
H         19.54241        33.19243         1.13387
H          1.22392         2.55495        -1.48045
H         -0.91626         3.82524        -1.30374
H         -0.95848         6.27871        -1.49606
H         -0.85773         8.21456        -2.04711
H         -0.89468        10.62693        -1.68131
H         -0.93176        12.51666        -1.43568
H         -0.95371        14.91125        -1.07520
H         -0.98605        16.75371        -0.61279
H         -1.00553        19.15151        -0.28766
H         -1.01695        21.07141        -0.14220
H         -0.96813        23.46919         0.23169
H         -0.99675        25.21544         1.13919
H         -0.98031        27.62079         1.61159
H         -1.01534        29.56303         2.38364
H         -1.06288        31.77218         1.47749
H         -1.07126        33.60943         0.75162
H         -1.04157        35.89365        -0.13028
H          0.15449        37.84289        -1.01686
H          3.69436         2.53034        -1.40538
H          2.25487        38.95738        -1.72620
H          6.14182         2.51586        -1.26853
H          4.69992        38.87395        -2.08697
H          8.59394         2.49150        -1.08438
H          7.16383        38.79322        -2.41216
H         11.05128         2.46553        -0.93407
H          9.59876        38.71707        -2.69284
H         13.51505         2.44396        -0.83319
H         11.99828        38.59256        -3.10250
H         15.98198         2.42097        -0.71514
H         14.41697        38.52120        -3.44556
H         18.43082         2.38532        -0.53418
H         16.83960        38.45810        -3.73982
H         20.57417         3.58335        -0.20058
H         21.80117         5.71738         0.14600
H         21.86382         8.16487         0.32954
H         21.93135        10.12650        -0.00584
H         21.94177        12.54326         0.27460
H         21.94058        14.46557         0.20082
H         21.94378        16.87859         0.44667
H         21.94566        18.73933         0.79864
H         21.96040        21.13955         1.08075
H         21.96219        22.99816         1.38946
H         21.98268        25.41264         1.42811
H         21.97513        27.23605         0.90234
H         21.93589        29.56401         0.23555
H         21.75213        31.09747        -0.95179
H         21.64396        33.28422        -2.02355
H         21.64053        35.16530        -2.52812
H         21.50272        37.40482        -3.55748
H         19.28669        38.49974        -3.91594
