         429
 CSIRO Nanostructure Databank - Neutral Graphene Oxide Data Set
C          2.85475         2.47875        -5.02155
C          2.84910         3.87892        -4.97579
C          3.98759         1.76877        -4.64972
C          3.99042         4.58669        -4.57000
C          2.82120         6.89217        -4.81988
C          2.84390         8.24443        -4.67906
C          4.03257         6.07998        -4.61778
C          3.95880         8.95757        -4.09022
C          2.94914        11.21106        -4.49151
C          2.97137        12.58119        -4.34769
C          3.93891        10.38274        -3.89455
C          3.98071        13.23446        -3.58508
C          2.93773        15.50004        -3.95348
C          2.88489        16.86480        -3.73916
C          3.96771        14.69293        -3.39301
C          3.83955        17.50970        -2.91614
C          3.80918        18.92302        -2.68074
C          5.14921         2.44815        -4.20949
C          5.15146         3.87192        -4.19416
C          6.26168         1.68812        -3.70507
C          6.36947         4.58183        -3.73782
C          5.18729         6.79393        -3.91908
C          5.02121         8.21014        -3.54670
C          6.25293         5.98705        -3.28189
C          5.97303         8.81401        -2.69053
C          4.96774        11.00984        -3.12739
C          4.96160        12.43182        -2.97570
C          5.98027        10.20236        -2.50177
C          6.06641        13.06895        -2.23365
C          4.94001        15.32985        -2.59556
C          4.86599        16.72411        -2.31895
C          6.08172        14.56354        -2.05105
C          5.83367        17.35193        -1.47068
C          4.75091        19.52663        -1.89153
C          5.78598        18.76070        -1.25011
C          7.35365         2.28065        -3.09034
C          7.48017         3.75410        -3.11619
C          8.39574         1.53554        -2.46838
C          8.37162         4.39131        -2.13168
C          7.15062         6.54599        -2.41245
C          6.85939         7.92157        -1.84343
C          8.25792         5.77405        -1.84090
C          8.11424         8.64565        -1.41774
C          6.97848        10.81634        -1.62012
C          6.92106        12.24538        -1.35185
C          7.94797        10.06177        -1.01411
C          7.79928        12.84788        -0.48123
C          6.84852        15.14960        -0.93176
C          6.81292        16.56237        -0.77111
C          7.56757        14.24768         0.04049
C          7.75528        17.21686         0.04629
C          6.74171        19.38394        -0.42298
C          7.75421        18.62716         0.22346
C          9.42548         2.15632        -1.75165
C          9.36402         3.59995        -1.51080
C         10.52269         1.39855        -1.24748
C         10.31356         4.21749        -0.67220
C          9.23324         6.38084        -1.00442
C          9.25784         7.85851        -0.87841
C         10.29677         5.62142        -0.46254
C         10.20737         8.52871         0.03717
C          8.81021        10.60876         0.09449
C          8.92129        12.10842         0.06202
C         10.12078         9.87639         0.28268
C         10.04098        12.76638         0.51380
C          8.83417        14.96765         0.35440
C          8.70983        16.37222         0.85409
C         10.16531        14.27108         0.29747
C          9.99678        17.08461         1.14255
C          8.81704        19.24212         0.94805
C          9.96891        18.49952         1.33905
C         11.54984         1.98081        -0.49710
C         11.37640         3.39298        -0.07806
C         12.70228         1.27398        -0.07032
C         12.55877         4.11998         0.49261
C         11.41414         6.28419         0.21683
C         11.24557         7.69509         0.74193
C         12.54973         5.59643         0.54174
C         12.54383         8.44671         0.93971
C         11.23408        10.60244         0.86053
C         11.21034        12.02265         0.95554
C         12.45108         9.90129         1.11456
C         12.34552        12.73258         1.44261
C         11.19675        14.91929         1.20474
C         11.15180        16.32984         1.44179
C         12.31307        14.16675         1.62666
C         12.26892        16.99112         2.04076
C         11.11201        19.14435         1.88408
C         12.25404        18.40965         2.26681
C         13.84270         1.91420         0.47090
C         13.86029         3.40107         0.47743
C         15.01335         1.22898         0.83184
C         15.07957         4.12474         0.94404
C         13.66679         6.24970         1.33066
C         13.69072         7.75201         1.17673
C         15.03851         5.59489         1.19807
C         14.92703         8.42055         1.71865
C         13.56559        10.60927         1.56544
C         13.52511        12.01633         1.80595
C         14.87209         9.93115         1.60740
C         14.63244        12.69159         2.39946
C         13.42867        14.81981         2.24935
C         13.38905        16.23166         2.45604
C         14.59887        14.07584         2.62164
C         14.44605        16.86674         3.16995
C         13.41320        19.04043         2.80800
C         14.54384        18.31308         3.23566
C         16.17947         1.85849         1.37287
C         16.22290         3.31339         1.41065
C         17.29090         1.03595         1.73426
C         17.37322         4.05736         1.64703
C         16.23144         6.28106         1.33933
C         16.25771         7.83309         1.20485
C         17.43271         5.47097         1.47951
C         17.36382         8.57273         1.97649
C         16.01986        10.66177         2.20297
C         15.75846        11.90880         3.01840
C         17.17605         9.83544         2.57182
C         17.02416        12.70311         3.31253
C         15.69167        14.71878         3.31709
C         15.42069        16.02178         3.73680
C         17.00387        14.07145         3.51878
C         17.25641        17.08989         4.05139
C         15.77650        19.01470         3.46204
C         17.07828        18.46644         3.62006
C         18.31905         1.41781         2.67219
C         18.76389         3.49591         1.68247
C         19.68682         1.07317         2.51165
C         19.65354         4.05714         2.79854
C         18.76072         6.00631         1.58289
C         18.68627         8.12025         1.98478
C         19.80210         5.47985         2.32884
C         19.61335         8.46725         2.98743
C         18.19150        10.43399         3.33019
C         18.28306        11.92533         3.29915
C         19.25828         9.60616         3.72412
C         19.58689        12.66417         3.39967
C         18.29730        14.82443         3.67673
C         18.33455        16.29229         3.73318
C         19.51528        14.14413         3.54501
C         19.62930        17.09457         3.78060
C         18.23876        19.14413         3.19032
C         19.51222        18.50139         3.19572
C         20.90035         1.84975         2.77362
C         20.93955         3.28622         2.89716
C         22.14396         1.19665         2.64711
C         22.13632         4.02186         2.90363
C         20.95391         6.22292         2.76720
C         20.80296         7.60740         3.43345
C         22.10656         5.47858         3.01154
C         22.14873         8.38586         3.49552
C         21.11738        10.73566         4.06643
C         20.92903        11.99416         3.59234
C         22.28814         9.85708         3.80355
C         22.06033        12.65387         2.82890
C         20.77524        14.86083         3.16655
C         20.79113        16.35075         3.17723
C         22.08330        14.16193         3.00423
C         22.09015        17.08703         3.19415
C         20.63569        19.13158         2.68861
C         21.99134        18.56176         2.80642
C         23.37687         1.90171         2.58774
C         23.39046         3.33531         2.73171
C         24.60208         1.23299         2.35649
C         24.59241         4.04862         2.53394
C         23.36951         6.23486         3.14316
C         23.28217         7.70924         2.73444
C         24.64472         5.49981         2.81326
C         24.61661         8.43700         2.74217
C         23.54134        10.58839         3.43073
C         23.42009        12.05282         3.14557
C         24.69546         9.82514         2.89559
C         24.59487        12.77444         2.60694
C         23.26127        14.83861         2.78120
C         23.34073        16.31563         2.93370
C         24.52081        14.14240         2.45892
C         24.51083        17.06521         2.32450
C         23.12819        19.13854         2.08077
C         24.31025        18.46227         1.85094
C         25.78635         1.94754         2.07843
C         25.75638         3.38696         2.06208
C         27.03269         1.29827         1.85812
C         26.87530         4.12589         1.54640
C         25.72956         6.27774         2.19258
C         25.74080         7.71181         2.23640
C         26.71532         5.58110         1.48071
C         26.88723         8.43893         1.77025
C         25.85615        10.54542         2.47368
C         25.87356        12.03717         2.54640
C         26.93678         9.85961         1.91814
C         27.05155        12.79353         1.94807
C         25.67542        14.89164         1.94908
C         25.60499        16.27384         1.74566
C         26.86785        14.19703         1.56891
C         26.83015        17.04381         1.34575
C         25.35231        19.05602         1.05981
C         26.54560        18.40930         0.75579
C         28.18600         2.02537         1.54044
C         28.08490         3.43792         1.24810
C         29.46967         1.37372         1.48846
C         29.31712         4.09101         0.83451
C         27.56211         6.40977         0.69731
C         27.84310         7.73778         0.97171
C         29.33578         5.35773         0.24318
C         28.97322         8.41529         0.20545
C         28.19123        10.56195         1.52883
C         28.18500        12.04122         1.37148
C         29.24732         9.78957         0.79434
C         29.19315        12.70987         0.71249
C         27.89699        14.85804         0.81752
C         27.79880        16.21972         0.55967
C         29.09528        14.12284         0.40506
C         28.70598        16.86436        -0.44264
C         27.60895        19.05768         0.08100
C         28.76678        18.37230        -0.33584
C         30.66066         2.06730         1.30990
C         30.60174         3.49443         1.04361
C         31.93736         1.41634         1.18934
C         31.77238         4.24103         0.81960
C         30.44604         6.22551         0.25172
C         30.30994         7.64690         0.08912
C         31.71395         5.61254         0.46471
C         31.47175         8.37528        -0.16782
C         30.35062        10.53512         0.15741
C         30.50664        11.98607         0.50002
C         31.43792         9.82701        -0.30157
C         31.48201        12.68050        -0.40324
C         30.16350        14.81335        -0.17951
C         30.05858        16.19900        -0.50767
C         31.53650        14.17329        -0.26490
C         31.13383        16.90111        -1.05924
C         29.89992        19.03802        -0.81423
C         31.07019        18.34459        -1.24356
C         33.11023         2.12445         0.94874
C         33.11559         3.62916         1.13137
C         34.32899         1.47475         0.62981
C         34.27367         4.33812         0.46735
C         32.89225         6.37126         0.16609
C         32.75672         7.72233        -0.23042
C         34.17512         5.73719         0.15484
C         33.90269         8.44005        -0.68385
C         32.58961        10.51976        -0.83436
C         32.52028        11.97027        -0.99007
C         33.75786         9.81063        -1.08665
C         33.61469        12.67740        -1.60447
C         32.45362        14.83247        -1.26162
C         32.30436        16.18242        -1.51122
C         33.60148        14.08165        -1.72121
C         33.30679        16.91352        -2.30513
C         32.18140        19.04504        -1.74196
C         33.34807        18.38781        -2.22778
C         35.48428         2.18683         0.26496
C         35.45968         3.63871         0.18672
C         36.67599         1.50778        -0.10989
C         36.62687         4.34026        -0.25391
C         35.30544         6.47111        -0.27456
C         35.17677         7.80332        -0.72919
C         36.66498         5.84424        -0.11433
C         36.34003         8.52198        -1.22718
C         34.88008        10.44974        -1.78952
C         34.77910        11.93720        -2.10997
C         36.21056         9.83162        -1.72942
C         36.04053        12.66253        -2.33638
C         34.73903        14.75945        -2.25378
C         34.61370        16.17463        -2.62552
C         35.98076        14.09750        -2.43116
C         35.81294        16.98493        -2.78094
C         34.48320        19.05867        -2.67837
C         35.72036        18.38081        -2.96853
C         37.79350         2.19828        -0.57287
C         37.77474         3.64212        -0.64343
C         38.98689         1.49840        -0.97495
C         38.93733         4.34648        -1.12881
C         37.75018         6.51323        -0.91327
C         37.61855         7.87428        -1.28637
C         38.92924         5.77447        -1.24959
C         38.72865         8.57147        -1.87634
C         37.32869        10.54717        -2.24102
C         37.24075        11.96884        -2.47300
C         38.57810         9.85887        -2.38426
C         38.48741        12.74298        -2.68115
C         37.15878        14.83830        -2.74606
C         37.09663        16.30723        -2.73481
C         38.39391        14.19216        -2.98108
C         38.31787        17.08623        -3.33943
C         36.84832        19.08649        -3.49274
C         38.03461        18.43643        -3.84632
C         40.07862         2.17267        -1.43550
C         40.08065         3.61168        -1.53842
C         41.19819         4.29988        -2.05230
C         40.07750         6.44181        -1.76194
C         40.10333         7.95780        -1.69796
C         41.19443         5.69236        -2.14838
C         41.15143         8.61469        -2.55999
C         39.63340        10.48204        -3.28172
C         39.74786        11.99127        -3.07600
C         40.96338         9.77574        -3.19592
C         40.73793        12.75668        -3.84278
C         39.49907        14.87669        -3.55968
C         39.39781        16.27690        -3.91566
C         40.63679        14.10626        -3.99712
C         40.24178        16.91058        -4.83170
C         38.99400        19.01455        -4.72666
C         40.06405        18.26761        -5.18731
O         22.52075         8.81478         4.82357
O          6.90758        13.92941        -3.10980
O         26.91859        12.57579         3.41428
O         19.02559         7.23390         0.96542
O          5.17660         6.58772        -5.37674
O         20.08429        10.08070         4.75751
O          9.29365         8.46850        -2.25993
O         29.33983         9.93904         2.25816
O         19.07136        12.28009         2.04613
O         33.55722        16.39367        -3.64205
O         24.29133         5.89253         4.19906
O         19.25040         3.02761         0.66507
O         34.49200        10.91901        -3.13245
O         14.78658         3.91316        -0.53597
O          7.59574         4.29388        -4.48103
O         24.42687        16.80359         3.77995
O         39.55281        12.41285        -1.70102
O         11.55300         3.54142         1.38335
O         16.19492        16.54020         4.77302
O         38.11947        16.93402        -1.90779
O         22.24793        18.09547         4.19918
O         28.18370         5.82255        -0.41003
O         15.82806        10.65949         0.75796
O         20.51293        15.70197         1.91634
O         23.76069        11.59370         4.49094
O         28.49364         8.65571        -1.14509
H         28.33463         7.77574        -1.55269
O         31.13959        11.99673         1.84660
H         30.62782        11.34654         2.39493
O         33.31704         3.84913         2.57753
H         34.22843         3.55771         2.79336
O          8.02233        16.28246         2.18114
H          7.84186        17.20668         2.46224
O         32.17213        14.42065         1.04402
H         31.83945        13.72716         1.66681
O          8.06182        10.28675         1.32962
H          7.31992        10.92656         1.39709
O         19.93676        17.21207         5.19754
H         19.33191        17.87324         5.59362
O         19.02447         4.16908         4.11240
H         19.50383         4.88057         4.59408
O         22.84572         7.73011         1.34471
H         23.54166         7.32280         0.78697
O         28.08601        16.60052        -1.76260
H         28.68472        16.97511        -2.44398
O         20.48416         7.22877         4.79713
H         20.98505         7.84288         5.38974
O          6.73178        14.05017         1.24638
H          6.92255        14.81051         1.84876
O          6.08247         7.68862        -0.62036
H          6.65432         7.21441         0.02022
O         13.28382         6.02177         2.73871
H         13.91067         6.56777         3.27862
O         40.48075         8.26520        -0.31112
H         40.42505         9.23833        -0.19898
O         27.50818        17.32994         2.63775
H         26.81196        17.51658         3.30576
O         10.69835        14.43026        -1.06987
H         11.51441        13.88991        -1.13550
O         14.93075         8.13825         3.16543
H         14.39045         8.82163         3.61837
O         16.36931         8.10518        -0.19655
H         17.27765         7.86691        -0.47989
O         21.85746        12.37332         1.41559
H         20.91359        12.56729         1.20644
O         39.15608        10.33092        -4.65187
H         39.01600         9.37604        -4.82226
O         15.25766        11.38393         4.30298
H         15.07271        12.15184         4.88501
O         17.84000         2.05528         3.75614
H         18.55760         2.41766         4.32376
O         37.03285         6.08562         1.30860
H         37.97972         5.84602         1.40584
O         10.72613         7.49345         2.10463
H         11.36432         6.89254         2.56065
H          1.95545         1.94411        -5.35718
H          1.94550         4.41874        -5.28922
H          3.98678         0.66977        -4.67710
H          1.88907         6.40059        -5.13262
H          1.92889         8.80767        -4.91112
H          2.15839        10.75884        -5.10519
H          2.19044        13.16932        -4.84712
H          2.16313        15.04206        -4.58237
H          2.08725        17.46146        -4.20490
H          3.01608        19.52019        -3.15396
H          6.18665         0.59018        -3.72473
H          4.71991        20.61291        -1.72253
H          8.39147         0.43899        -2.56261
H          6.72991        20.47823        -0.31116
H         10.58402         0.33087        -1.50806
H          8.81482        20.33373         1.07929
H         12.74507         0.18781        -0.24686
H         11.09429        20.23472         2.02878
H         15.01074         0.12971         0.76681
H         13.43728        20.14010         2.85222
H         17.40257         0.07731         1.20266
H         15.74163        20.09239         3.22924
H         19.85133         0.27343         1.76852
H         18.15525        20.15562         2.76524
H         22.16276         0.10529         2.50728
H         20.53357        20.13449         2.24482
H         24.62173         0.13308         2.33842
H         22.99232        20.13139         1.62448
H         27.09799         0.20759         1.98770
H         25.18066        20.07064         0.66761
H         29.49978         0.28517         1.65014
H         27.54460        20.14509        -0.08679
H         31.96522         0.31515         1.19564
H         29.90979        20.13900        -0.82432
H         34.34827         0.37464         0.58548
H         32.14395        20.14458        -1.77450
H         36.70511         0.40959        -0.04684
H         34.47728        20.15862        -2.71082
H         38.99747         0.40059        -0.90817
H         36.71179        20.13785        -3.78795
H         40.98052         1.62535        -1.74649
H         42.08488         3.73177        -2.36779
H         42.09443         6.19479        -2.52804
H         42.16022         8.17428        -2.55503
H         41.79863        10.21993        -3.76002
H         41.56101        12.21787        -4.33417
H         41.43508        14.62345        -4.54728
H         41.06583        16.35940        -5.30435
H         38.85099        20.04878        -5.07091
H         40.77565        18.72193        -5.89079
