         410
 CSIRO Nanostructure Databank - Neutral Graphene Oxide Data Set
C         27.91401        27.35332         0.18083
C         27.88710        28.77319         0.22416
C         26.65668        29.47777         0.23062
C         27.85223        31.59717         0.33963
C         26.64711        30.85604         0.28641
C         27.80760        33.07229         0.40916
C         26.57359        33.83058         0.12416
C         27.78884        35.94687        -0.23125
C         26.58113        35.17942        -0.06208
C         27.80948        37.33957        -0.41315
C         26.59166        38.11734        -0.36589
C         27.75893        40.27249        -0.45066
C         26.56323        39.48447        -0.39540
C         27.75672        41.66942        -0.39460
C         26.56575        42.47190        -0.45292
C         27.85521        44.57102        -0.28505
C         26.61198        43.83767        -0.38836
C         27.87258        45.99014        -0.33842
C         30.35457        27.35704         0.22267
C         29.11200        26.67204         0.17696
C         30.35194        28.77901         0.27414
C         29.11447        29.49814         0.26328
C         30.35893        31.65403         0.22352
C         29.10013        30.92782         0.30513
C         30.37476        33.04406         0.04673
C         29.11944        33.80712         0.19665
C         30.34569        35.90289        -0.63147
C         29.03909        35.17683        -0.38419
C         30.29452        37.37989        -0.61552
C         29.06102        38.04315        -0.58747
C         30.34480        40.25082        -0.56303
C         29.02597        39.52186        -0.68477
C         30.30403        41.64850        -0.01938
C         29.01522        42.39612        -0.07169
C         30.30996        44.58495        -0.15385
C         29.07008        43.87557        -0.16299
C         30.31198        46.01219        -0.20154
C         29.06342        46.68615        -0.28293
C         32.84516        24.50573         0.14505
C         31.64987        25.20631         0.06961
C         32.84075        27.29759         0.37989
C         31.61051        26.61196         0.21502
C         32.81755        28.76483         0.58895
C         31.57786        29.51830         0.37449
C         32.85576        31.65143         0.17105
C         31.60342        30.92173         0.27402
C         32.84849        33.07475        -0.02702
C         31.60509        33.77294        -0.11873
C         32.83139        35.87817        -0.40097
C         31.61189        35.17912        -0.33751
C         32.80599        37.31790        -0.72768
C         31.54765        38.08664        -0.60629
C         32.84743        40.17939        -0.37446
C         31.60085        39.47347        -0.48551
C         32.84712        41.64683        -0.14758
C         31.58846        42.41694         0.02865
C         32.77162        44.58938        -0.23111
C         31.57024        43.89189        -0.15471
C         32.80128        46.01995        -0.16799
C         31.56874        46.73111        -0.14938
C         32.82596        48.81554         0.00065
C         31.62233        48.14897        -0.08400
C         35.37050        23.06508         0.77949
C         35.34211        24.44646         0.46653
C         34.07157        25.17723         0.32743
C         35.38222        27.30839         0.57492
C         34.05817        26.58780         0.39693
C         35.31398        28.75057         0.09938
C         34.11689        29.53905         0.48992
C         35.33385        31.66729         0.00423
C         34.08996        30.97421         0.17313
C         35.33378        33.09126        -0.03001
C         34.08049        33.79264        -0.08810
C         35.31968        35.95213        -0.11919
C         34.07402        35.21019        -0.23045
C         35.31303        37.34180        -0.17667
C         34.12403        38.07957        -0.61931
C         35.32073        40.26416        -0.25495
C         34.07139        39.53434        -0.39411
C         35.34296        41.66974        -0.35421
C         34.07474        42.38606        -0.55256
C         35.32843        44.57883        -0.26129
C         34.04990        43.88230        -0.49248
C         35.31454        45.98261        -0.07710
C         34.05791        46.71175        -0.08745
C         35.32366        48.83235         0.20141
C         34.06730        48.12238         0.02258
C         35.37176        50.23851         0.34473
C         37.81132        23.03197         0.69275
C         36.56735        22.37931         0.88641
C         37.79390        24.42980         0.41266
C         36.56422        25.12291         0.31068
C         37.83083        27.30526        -0.00460
C         36.51332        26.56353        -0.15477
C         37.85293        28.73011         0.02814
C         36.59929        29.49732        -0.09808
C         37.79381        31.66790         0.11371
C         36.58435        30.97283         0.02415
C         37.80519        33.09520         0.07333
C         36.57131        33.80206        -0.00301
C         37.80294        35.92527         0.10950
C         36.57921        35.23938         0.03566
C         37.82072        37.37580         0.33907
C         36.49365        38.12008         0.20590
C         37.76932        40.25459        -0.07323
C         36.53952        39.56592        -0.07012
C         37.77458        41.67722        -0.17528
C         36.54947        42.39494        -0.27733
C         37.77892        44.53323        -0.10911
C         36.53819        43.84084        -0.24136
C         37.77450        45.94523         0.07706
C         36.54824        46.67159         0.11132
C         37.75489        48.79956         0.56593
C         36.54490        48.10869         0.28432
C         37.78728        50.20603         0.70024
C         36.56359        50.90503         0.57081
C         40.34771        20.26606         1.02030
C         39.14268        20.93121         1.01481
C         40.28653        23.03091         0.48133
C         39.07417        22.32708         0.74607
C         40.25232        24.43040         0.22365
C         39.03652        25.14213         0.22473
C         40.32768        27.28568         0.29441
C         39.01628        26.57456         0.09937
C         40.27945        28.77194         0.10022
C         39.06759        29.45940         0.13758
C         40.36415        31.70293         0.50383
C         39.00918        30.91051         0.59751
C         40.28981        33.10739        -0.09302
C         39.05198        33.80723        -0.01291
C         40.28726        35.94082        -0.09973
C         39.05853        35.23573        -0.02796
C         40.35211        37.39131         0.31871
C         39.05929        38.14400         0.12930
C         40.26702        40.26288        -0.18279
C         39.02793        39.52118        -0.00499
C         40.23838        41.65588        -0.28881
C         39.01269        42.39707        -0.19773
C         40.26858        44.54552        -0.17318
C         39.01544        43.81193        -0.16036
C         40.25117        45.96730         0.12233
C         39.02633        46.61728         0.29743
C         40.30659        48.75328         0.90894
C         38.98219        48.00867         0.76143
C         40.27754        50.22701         0.87449
C         39.05681        50.92279         0.89117
C         40.29242        53.01162         1.24348
C         39.09567        52.33711         1.04803
C         42.81296        20.26089         0.79354
C         41.56867        20.95232         0.75833
C         42.79162        23.03813         0.24359
C         41.54698        22.34175         0.47750
C         42.79644        24.41808        -0.07371
C         41.49594        25.09298        -0.22920
C         42.77630        27.28920        -0.53792
C         41.46900        26.57150        -0.41543
C         42.76670        28.77356        -0.36649
C         41.50855        29.50032        -0.02741
C         42.73587        31.58669        -0.41352
C         41.50811        30.87397        -0.01193
C         42.70687        33.04978        -0.67202
C         41.46331        33.81191        -0.39805
C         42.73778        35.97602        -0.49603
C         41.49740        35.25063        -0.36853
C         42.79849        37.39644        -0.37394
C         41.56847        38.14190        -0.16640
C         42.77349        40.28573        -0.34798
C         41.51363        39.52405        -0.25472
C         42.75374        41.70749        -0.79717
C         41.44246        42.42548        -0.66212
C         42.72827        44.60049        -0.63167
C         41.45161        43.87856        -0.45466
C         42.74717        46.07694        -0.31927
C         41.49586        46.71432         0.17192
C         42.77376        48.86695         0.26297
C         41.52880        48.04609         0.51305
C         42.74057        50.19274         0.97602
C         41.52849        50.91314         1.00384
C         42.77212        52.99539         1.49188
C         41.52317        52.32557         1.24665
C         44.00018        20.93222         0.59804
C         45.27627        23.04774         0.18161
C         44.02894        22.32901         0.33623
C         45.28370        24.44535        -0.03890
C         44.02555        25.15740        -0.17554
C         45.31584        27.30382        -0.67640
C         44.03694        26.54822        -0.37488
C         45.32158        28.74436        -0.19536
C         44.05164        29.43719        -0.00020
C         45.30101        31.65507        -0.25890
C         44.03441        30.95024        -0.05937
C         45.29948        33.06589        -0.53673
C         44.02134        33.75842        -0.82588
C         45.29511        35.96261        -0.70707
C         43.99756        35.26928        -0.81140
C         45.27855        37.37954        -0.75565
C         44.03366        38.07376        -0.57508
C         45.21580        40.28537        -1.09502
C         44.07136        39.54138        -0.47814
C         45.25200        41.76707        -0.91669
C         44.03637        42.46228        -0.73102
C         45.23616        44.58060        -0.51874
C         44.01474        43.86354        -0.60692
C         45.25115        46.00280        -0.19358
C         44.05013        46.71801        -0.01453
C         45.27153        48.72220         0.66163
C         44.05745        48.07347         0.40436
C         45.29800        50.07820         1.26101
C         43.96463        50.83853         1.44378
C         43.93259        52.29667         1.62108
C         47.71788        23.04585         0.24868
C         46.52521        22.36799         0.29800
C         47.76073        24.45822         0.08076
C         46.53149        25.16492        -0.08384
C         47.76665        27.30148        -0.14225
C         46.56334        26.57839        -0.24963
C         47.77892        28.75226        -0.11754
C         46.50375        29.47192        -0.08521
C         47.72583        31.69012         0.04276
C         46.47682        30.92369        -0.07921
C         47.75217        33.11051        -0.36195
C         46.50575        33.78897        -0.58603
C         47.74863        35.93884        -0.84091
C         46.50868        35.23672        -0.73845
C         47.72017        37.35421        -1.01225
C         46.51066        38.06880        -0.97113
C         47.76244        40.27680        -1.47480
C         46.47871        39.50715        -1.34693
C         47.74047        41.79862        -1.32242
C         46.46197        42.49408        -0.99623
C         47.70916        44.66166        -0.81469
C         46.45037        43.88434        -0.74349
C         47.73542        46.03123        -0.27270
C         46.50070        46.68649        -0.01245
C         47.74551        48.76290         0.50389
C         46.50765        48.05567         0.40236
C         47.71084        50.17453         0.81997
C         46.56901        50.80813         1.18480
C         50.25637        24.48994         0.11892
C         49.00605        25.17319         0.05746
C         50.25151        27.30696        -0.01513
C         49.01023        26.59299        -0.01847
C         50.24986        28.73598        -0.07606
C         48.99417        29.43306        -0.05364
C         50.25921        31.63152        -0.22475
C         49.03005        30.90434         0.10114
C         50.20817        33.01126        -0.42041
C         48.98344        33.77138        -0.50140
C         50.21669        35.88712        -0.94723
C         49.01073        35.20924        -0.79422
C         50.26333        37.32256        -1.30736
C         48.97222        38.08611        -1.32837
C         50.20898        40.26127        -0.98937
C         49.01871        39.56696        -1.19837
C         50.19458        41.71559        -0.84144
C         49.01490        42.43894        -0.95489
C         50.25660        44.59398        -0.46417
C         49.03154        43.90824        -0.89729
C         50.22731        45.98054        -0.17101
C         48.97173        46.69246        -0.07304
C         50.23336        48.73994         0.47121
C         48.97194        48.07972         0.29600
C         51.44660        25.17275         0.11670
C         52.72711        27.31470         0.08527
C         51.48653        26.59632         0.05844
C         52.71891        28.73768         0.00085
C         51.48101        29.45224        -0.09746
C         52.73408        31.57073        -0.23029
C         51.50471        30.88802        -0.22919
C         52.74889        33.01524        -0.26597
C         51.49027        33.69223        -0.66849
C         52.71550        35.89966        -0.49657
C         51.50699        35.16871        -0.88422
C         52.77753        37.33121        -0.67733
C         51.54016        38.10501        -1.12797
C         52.65353        40.27267        -0.62010
C         51.47135        39.56284        -0.86247
C         52.64296        41.69688        -0.53465
C         51.44002        42.42082        -0.59720
C         52.68885        44.52485        -0.09495
C         51.45296        43.84706        -0.40485
C         52.68706        45.95047         0.09430
C         51.46332        46.66220         0.09154
C         51.41846        48.06792         0.37215
C         55.16880        27.32016         0.25375
C         53.98230        26.63640         0.20447
C         55.19154        28.74756         0.18028
C         53.95989        29.45105         0.04568
C         55.20250        31.58088         0.04384
C         53.97718        30.87448        -0.04222
C         55.24677        33.08863        -0.13307
C         53.88715        33.73809        -0.03921
C         55.08952        35.94043         0.40649
C         53.76678        35.20785         0.31743
C         55.11837        37.33835         0.34500
C         53.86080        38.06989         0.03691
C         55.16767        40.24517         0.01942
C         53.86871        39.56793        -0.11397
C         55.26862        41.65484        -0.33361
C         53.92378        42.42543        -0.48226
C         55.10740        44.46323         0.55903
C         53.90605        43.82610        -0.09521
C         55.13265        45.94416         0.30797
C         53.97147        46.62499         0.17173
C         56.40308        29.47054         0.22924
C         56.40248        30.85969         0.16041
C         56.25493        33.80280         0.73130
C         56.20973        35.15256         0.86543
C         56.25612        38.13084         0.65352
C         56.25888        39.52051         0.52080
C         56.47967        42.45553         0.00097
C         56.41223        43.75902         0.29829
O         38.67598        30.74020         1.97236
O         39.61616        48.19559         2.07742
O         43.65432        40.09589         0.82019
O         33.99434        43.15000        -1.79471
O         43.95895        30.23716         1.21846
O         29.55056        41.83118         1.21565
O         52.58680        37.76780        -2.09047
O         41.98026        41.97665        -1.99334
O         51.65269        34.21268        -2.04939
O         54.76573        42.03969        -1.64854
O         41.20161        25.74824        -1.56764
O         37.04907        37.78317         1.52425
O         47.79092        41.15321        -2.63773
O         33.58932        37.65699        -1.92106
O         35.75914        29.02584        -1.24216
O         45.52960        39.79536        -2.43011
O         43.99124        34.50051        -2.08862
O         44.64364        50.12519         2.57514
O         29.71225        40.08735        -1.87404
O         28.55504        33.67506         1.53710
O         48.41242        44.52067        -2.09261
O         42.66076        45.61596        -1.71134
O         32.40254        42.02108         1.20555
O         29.59817        35.27139        -1.73449
O         33.57906        29.18286         1.80294
O         49.59646        37.61975        -2.58349
O         53.43354        38.88878         1.16522
O         42.79198        28.21572        -1.72329
O         48.39900        31.41006         1.32973
O         42.59604        32.07136        -1.79112
O         45.38018        27.38046        -2.14827
H         44.50207        27.72567        -2.44650
O         42.72707        49.22371        -1.17425
H         42.74759        48.38554        -1.68710
O         54.88495        44.29367         2.01486
H         54.11477        44.85172         2.25655
O         53.25757        35.21116         1.71877
H         53.97678        34.86265         2.28884
O         35.70576        27.33167         1.98145
H         35.01497        27.87655         2.42796
O         40.67937        27.12510         1.71896
H         40.06267        27.68117         2.24464
O         55.69080        33.32356        -1.51743
H         54.97808        33.00990        -2.11447
O         36.15872        26.51164        -1.55936
H         36.92871        26.17070        -2.05943
O         40.53397        37.31608         1.78663
H         40.48871        38.23021         2.13997
O         40.78429        31.98715         1.86660
H         40.05766        31.56700         2.42598
H         26.96378        26.80145         0.15019
H         25.71250        28.91577         0.20547
H         25.68279        31.38041         0.31134
H         25.60812        33.30626         0.13605
H         25.61337        35.68935        -0.16733
H         25.63430        37.58663        -0.27996
H         25.59131        39.99181        -0.31996
H         25.59306        41.97902        -0.59062
H         25.67974        44.41654        -0.46175
H         26.92123        46.53431        -0.42518
H         29.09175        25.57495         0.14691
H         29.03426        47.78319        -0.32348
H         32.82643        23.41191         0.04294
H         30.72409        24.63946        -0.09367
H         32.80933        49.91114         0.06738
H         30.69505        48.73695        -0.07973
H         34.42990        22.52107         0.94253
H         34.45158        50.83285         0.27414
H         36.53847        21.30679         1.12079
H         36.53928        51.99899         0.65804
H         40.38099        19.18803         1.23456
H         38.22406        20.36687         1.22302
H         40.28412        54.09874         1.40839
H         38.16309        52.91608         1.05740
H         42.81736        19.18098         0.99971
H         42.76540        54.08606         1.63427
H         44.93630        20.36195         0.65287
H         44.85798        52.81657         1.90463
H         48.64844        22.47489         0.36105
H         46.54925        21.28082         0.44456
H         48.64264        50.75444         0.79314
H         46.60052        51.86609         1.47877
H         50.28288        23.39349         0.16093
H         50.25927        49.80817         0.72142
H         52.37993        24.59698         0.16034
H         52.35305        48.61604         0.54952
H         56.11912        26.77593         0.35174
H         54.00533        25.54065         0.26676
H         56.09410        46.47742         0.34075
H         54.00336        47.71790         0.05998
H         57.35299        28.92452         0.31981
H         57.36001        31.39841         0.18494
H         57.11313        33.24514         1.13349
H         57.04600        35.66656         1.36476
H         57.18763        37.63934         0.96565
H         57.19767        40.05454         0.72555
H         57.46090        41.96894        -0.11059
H         57.33593        44.32737         0.48707
