         349
 CSIRO Nanostructure Databank - Neutral Graphene Oxide Data Set
C          1.16059         3.64212        -1.22585
C         -0.07336         4.33242        -1.04625
C          1.08015         6.43994        -0.47987
C         -0.13850         5.63907        -0.64027
C          1.10540         7.76468         0.20920
C         -0.12973         8.47198         0.44696
C          1.04345        10.59448         0.67793
C         -0.16318         9.81934         0.69514
C          1.06641        11.98010         0.61564
C         -0.08904        12.79042         0.86839
C          1.18196        14.87667         0.51834
C         -0.02931        14.15393         0.86194
C          1.17456        16.35248         0.55488
C          0.05124        17.12228         0.93052
C          1.22823        19.23696         0.56229
C          0.07131        18.51797         0.92562
C          1.24144        20.72007         0.43769
C          0.09132        21.38394        -0.04530
C          1.29528        23.49710        -0.32989
C          0.10117        22.74047        -0.35975
C          1.38315        24.86419        -0.79571
C          0.29324        25.61379        -1.24029
C          1.55116        27.72670        -1.33533
C          0.37197        27.00139        -1.49785
C          1.62053        29.15471        -1.39264
C          3.62669         3.58351        -1.07541
C          2.37796         4.25181        -0.94117
C          3.56045         6.19412         0.20204
C          2.38782         5.69715        -0.61349
C          3.59499         7.70875         0.35230
C          2.31348         8.39282         0.45880
C          3.59424        10.50383         0.36889
C          2.32431         9.83297         0.95500
C          3.60762        12.01457         0.38506
C          2.28414        12.66332         0.02314
C          3.56115        14.81038        -0.38921
C          2.30780        14.16776         0.16331
C          3.57628        16.32952        -0.23690
C          2.34204        17.05489         0.19424
C          3.66641        19.05507        -0.19936
C          2.35597        18.46462         0.20368
C          3.58312        20.96212         1.29504
C          2.40606        21.50843         0.62653
C          3.75526        23.49305         0.15016
C          2.48346        22.83910         0.12415
C          3.85849        24.85551        -0.14458
C          2.71176        25.49609        -0.81357
C          3.97199        27.72070        -0.58060
C          2.80559        26.99682        -1.10580
C          3.98762        29.15021        -0.70345
C          2.79510        29.82406        -1.15044
C          6.08553         3.61176        -1.21001
C          4.85285         4.23192        -0.85871
C          6.02357         6.21546        -0.03821
C          4.85336         5.58043        -0.28567
C          6.06370         7.59013         0.53502
C          4.79237         8.35006         0.56856
C          6.11232        10.57890         0.51511
C          4.85522         9.83212         0.92728
C          6.09338        11.95045         0.34614
C          4.82032        12.69728         0.26726
C          6.08631        14.82412         0.05595
C          4.84887        14.11850         0.05905
C          6.13580        16.24742         0.09959
C          4.89794        17.02030        -0.07835
C          6.10693        19.20195         0.56749
C          4.84240        18.39453         0.54915
C          6.07373        20.53297         0.90091
C          4.86883        21.35370         0.91661
C          6.23304        23.43449         0.70334
C          5.01701        22.67062         0.19008
C          6.22047        24.90202         0.64736
C          5.04124        25.59978         0.15620
C          6.13474        27.82749         0.58716
C          5.03679        27.02232         0.01847
C          6.30219        29.23617         0.14539
C          5.16951        29.86335        -0.44999
C          8.54296         3.55805        -1.36841
C          7.33840         4.23435        -1.05620
C          8.24426         6.59115        -0.88330
C          7.34904         5.54614        -0.29230
C          8.49123         7.76164        -0.24503
C          7.37123         8.33896         0.55536
C          8.67978        10.57128         0.40645
C          7.38870         9.84174         0.67162
C          8.58438        12.02201         0.13138
C          7.34210        12.68857         0.17681
C          8.55745        14.84522         0.00387
C          7.33455        14.10979         0.09912
C          8.54785        16.26768         0.11749
C          7.34025        16.96016         0.28896
C          8.61989        19.16097         0.51551
C          7.35887        18.39001         0.82441
C          8.61782        20.56517         0.71501
C          7.37259        21.21788         1.31065
C          8.61597        23.43880         1.32194
C          7.34033        22.73012         1.09645
C          8.62140        24.93238         1.28371
C          7.34755        25.61757         1.03220
C          8.63266        27.81437         1.01883
C          7.36274        27.08657         1.12250
C          8.59220        29.30627         1.23969
C          7.45499        29.92986         0.45691
C         11.03607         3.37353        -1.02551
C          9.88174         4.09477        -1.36290
C         11.16041         6.23889        -1.17769
C         10.06152         5.52439        -1.54213
C         11.09873         7.65931        -0.70355
C          9.84478         8.38615        -0.26526
C         11.06803        10.54075        -0.21327
C          9.90700         9.85755        -0.07069
C         11.06087        11.98516         0.12726
C          9.79160        12.74039        -0.01277
C         11.06542        14.88092        -0.08176
C          9.80455        14.14051        -0.07824
C         11.05504        16.25513        -0.00538
C          9.79498        17.03983        -0.22228
C         11.03997        19.17205         0.27262
C          9.82650        18.47307         0.26316
C         11.04943        20.59710         0.35654
C          9.81210        21.28426         0.57045
C         11.01483        23.51954         0.34918
C          9.89825        22.72514         0.91705
C         11.00840        24.89141         0.29344
C          9.89047        25.68212         0.85074
C         10.95456        27.87202         0.24298
C          9.79560        27.15302         0.61447
C         10.99329        29.31156         0.36881
C          9.86983        29.98482         0.86731
C         13.41472         3.36405        -0.36162
C         12.30179         4.02565        -0.83887
C         13.61172         6.21258        -0.60938
C         12.46279         5.47589        -1.25297
C         13.64638         7.69038        -0.80609
C         12.36012         8.45764        -0.94367
C         13.62921        10.61672        -0.36892
C         12.32431         9.98791        -0.87355
C         13.61047        11.98623        -0.12522
C         12.35005        12.71946         0.11575
C         13.55780        14.84307        -0.09973
C         12.34343        14.18137        -0.04674
C         13.56284        16.31178        -0.43419
C         12.33654        16.97514         0.14955
C         13.58795        19.18473        -0.02239
C         12.33078        18.45699         0.25563
C         13.58642        20.65607         0.31457
C         12.24888        21.31787         0.18412
C         13.38939        23.44570        -0.70295
C         12.16863        22.74311        -0.17565
C         13.32853        24.94824        -1.00534
C         12.03580        25.63578        -0.49739
C         13.33348        27.85650        -0.76398
C         12.04306        27.14294        -0.43949
C         13.38957        29.38911        -0.43440
C         12.19779        30.01587         0.11233
C         15.65910         3.34904         0.60290
C         14.62817         4.05353         0.03057
C         15.82770         6.22600         0.46387
C         14.67880         5.52298        -0.10505
C         15.90055         7.75569         0.45235
C         14.99720         8.39383        -0.65787
C         16.03567        10.56761         0.06944
C         14.89141         9.90410        -0.35285
C         16.02383        11.99838         0.40610
C         14.80206        12.75185         0.10983
C         16.01276        14.93097         0.55704
C         14.79190        14.14192         0.11381
C         16.02498        16.37281         0.09518
C         14.84483        17.04959        -0.13491
C         16.03514        19.26324        -0.26048
C         14.77048        18.50508        -0.17667
C         16.00410        20.74626        -0.17420
C         14.76231        21.41569        -0.25044
C         15.93127        23.52339        -0.72306
C         14.72429        22.78488        -0.55396
C         15.81752        24.97394        -0.88347
C         14.60464        25.69457        -0.67558
C         15.84102        27.83247        -0.76659
C         14.61314        27.10547        -0.71660
C         15.87294        29.27175        -0.61144
C         14.70647        29.98222        -0.28690
C         18.18877         3.51342         1.02919
C         16.77641         4.01307         1.36148
C         18.66619         6.52933         1.28372
C         16.66168         5.49870         1.25051
C         18.62706         7.80345         0.72887
C         17.32490         8.37839         0.30567
C         18.64179        10.56799         0.40858
C         17.34026         9.87278         0.15040
C         18.64631        12.06085         0.40733
C         17.33310        12.77511         0.51656
C         18.53620        14.92243         0.21057
C         17.32164        14.22137         0.29534
C         18.50374        16.38611         0.28264
C         17.30221        17.05554         0.17371
C         18.49277        19.29402         0.41957
C         17.31387        18.51981        -0.06369
C         18.43182        20.79455         0.33677
C         17.19581        21.48076        -0.14424
C         18.46433        23.56040        -0.27827
C         17.19185        22.87672        -0.42689
C         18.74436        24.76023        -0.91885
C         16.92523        25.74950        -1.26448
C         18.35274        27.78249        -0.97388
C         17.06038        27.13309        -0.99636
C         18.33981        29.21711        -0.88733
C         17.12527        29.92070        -0.71481
C         19.38494         4.15928         0.97445
C         20.84634         6.14958         0.39169
C         19.66461         5.59439         0.95614
C         20.97038         7.51643         0.15687
C         19.85090         8.39751         0.26252
C         21.04386        10.60918        -0.17256
C         19.87238         9.81686         0.04573
C         21.02851        11.97910        -0.28513
C         19.74407        12.76970        -0.36263
C         20.94894        15.03964        -0.26289
C         19.78103        14.25271        -0.02867
C         20.97280        16.39611        -0.08147
C         19.81827        17.09480         0.59037
C         20.92741        19.38364         0.47996
C         19.80480        18.61224         0.42773
C         20.87902        20.83245         0.49932
C         19.71227        21.53023         0.40841
C         20.77198        23.84995         0.69313
C         19.51594        23.01614         0.67506
C         20.83890        25.12074         0.20665
C         19.76046        25.68263        -0.56619
C         20.80260        27.88326        -0.87108
C         19.62536        27.10164        -0.86483
C         20.77345        29.28023        -0.94886
C         19.56063        29.94857        -0.91978
O         11.45113        26.41208        -1.58999
O          1.93223         6.52511        -1.70707
O          9.53661        25.47363         2.26652
O         18.17939        20.07735         1.62450
O         12.46372        22.79764        -1.65415
O          8.95910         6.25156        -2.01707
O         17.92583        25.12276        -2.00437
O          6.90605         7.66734         1.78398
O          4.25783        16.94422        -1.39768
O          6.35400        27.65083         2.03460
O          9.52889        22.92723         2.32198
O         16.59684        12.35405         1.72502
O          3.11064        26.00549        -2.14026
O          8.24666        10.27204         1.78538
O         16.88104        18.85448        -1.42520
O          7.40470        20.88667         2.69201
O         13.05662         8.02942        -2.15599
O         17.56337         8.99552        -0.99583
O         18.92352        11.34613         1.63866
O         11.73196        12.27462         1.40761
O         17.57001         6.16681         2.08419
O         13.21370        28.80622        -1.80683
O         12.49166        17.57955         1.47030
O          3.82633        19.75632        -1.17860
O         10.73803         7.70828         0.72674
O         12.78853         5.39263        -2.68481
H         12.91766         6.32064        -2.99257
O          8.34387        29.53266         2.66879
H          7.53910        29.00654         2.89321
O          7.92862         5.21350         1.00718
H          7.80141         5.99791         1.59789
O         13.82957        20.69975         1.78014
H         13.26959        20.00968         2.20062
O         15.61504         8.16320        -1.93553
H         14.92707         8.28819        -2.62479
O         13.38005        16.41007        -1.88569
H         14.21442        16.13390        -2.32005
O          4.59590        18.07083         1.96395
H          5.50150        17.92017         2.35683
O         19.27622        12.68466        -1.76208
H         19.94709        13.12309        -2.32709
O          4.92283         9.89715         2.38510
H          5.73528         9.41049         2.65715
O          5.31037        22.37675        -1.21615
H          5.13252        23.18318        -1.74473
O         16.58774         3.65644         2.76744
H         17.16462         4.25707         3.28798
O         15.89923        15.01659         2.01900
H         16.01480        14.09512         2.36013
O         20.01661        16.89849         2.03474
H         19.95306        15.93572         2.21255
O         18.98400        23.07383         2.03994
H         18.53963        22.22042         2.23990
O          2.11026        12.37181        -1.42651
H          2.60467        13.07666        -1.92070
O          3.62193        10.17871        -1.05218
H          2.96505        10.77836        -1.49608
O          2.32467         9.81977         2.40615
H          3.23948         9.62342         2.72490
O          9.72451        17.20406        -1.69711
H          9.78434        16.31209        -2.10180
O         13.32179        25.04932        -2.44878
H         12.67465        24.38578        -2.78083
O         12.19617        10.45791        -2.25222
H         12.71203         9.83293        -2.81300
O          3.33498         5.65334         1.54045
H          4.11058         5.88085         2.09578
O          3.54005        14.55466        -1.84178
H          3.97311        15.34160        -2.25941
O         15.36466         8.21285         1.71057
H         15.83916         7.74986         2.43403
O          3.28776        20.13963         2.31252
H          4.07743        19.62436         2.61397
O          7.34981        18.22625         2.29481
H          7.44681        19.17274         2.65989
H          1.14077         2.58502        -1.52828
H         -1.00700         3.77000        -1.19178
H         -1.11630         6.08326        -0.40635
H         -1.07915         7.92635         0.35382
H         -1.13820        10.32434         0.75756
H         -1.02483        12.30216         1.17596
H         -0.93015        14.72131         1.12843
H         -0.88066        16.62537         1.23171
H         -0.83569        19.06122         1.22755
H         -0.83663        20.81206        -0.19001
H         -0.83067        23.20737        -0.70776
H         -0.69560        25.13861        -1.30984
H         -0.55380        27.54023        -1.74773
H          0.71248        29.71641        -1.65687
H          3.63018         2.54526        -1.44177
H          2.82580        30.91975        -1.23901
H          6.04275         2.61337        -1.67363
H          5.20316        30.94450        -0.65000
H          8.45214         2.47622        -1.56863
H          7.54625        30.98322         0.15173
H         10.95448         2.30911        -0.75589
H          9.91773        31.07728         0.99014
H         13.35942         2.28214        -0.16222
H         12.28227        31.05322         0.46781
H         15.57319         2.25524         0.69409
H         14.78272        31.01968         0.06986
H         18.23612         2.41456         0.94644
H         17.16100        31.01762        -0.63531
H         20.26676         3.52420         0.78080
H         21.68773         5.48273         0.15271
H         21.93034         7.90940        -0.20681
H         22.01503        10.09381        -0.23648
H         21.98335        12.50154        -0.44618
H         21.85465        14.53857        -0.63804
H         21.89580        16.95608        -0.28839
H         21.91936        18.91353         0.54527
H         21.83264        21.36888         0.61195
H         21.61123        23.46409         1.29018
H         21.73570        25.72637         0.40498
H         21.77775        27.37860        -0.83042
H         21.71637        29.84310        -0.98165
H         19.52675        31.04709        -0.89984
