         234
 CSIRO Nanostructure Databank - Neutral Graphene Oxide Data Set
C          1.23953         2.12972         0.67139
C          1.14919         3.44772         0.31539
C          2.48442         1.48992         0.94820
C          2.34860         4.29740         0.24772
C          1.14297         6.42062        -0.30725
C          1.14701         7.83545        -0.48480
C          2.29469         5.67074        -0.33841
C          2.30912         8.56363        -0.65654
C          1.17858        10.78203        -0.42906
C          1.20106        12.18502        -0.36639
C          2.34742        10.01956        -0.66242
C          2.35498        12.91564        -0.61567
C          1.20019        15.14004        -0.44934
C          1.23249        16.51005        -0.28609
C          2.39877        14.36534        -0.49996
C          2.46453        17.20370        -0.16742
C          2.52248        18.61817         0.01728
C          3.69330         2.14421         0.74187
C          3.67075         3.57375         0.34920
C          4.95247         1.59290         1.11021
C          4.90178         4.15397        -0.27635
C          3.54065         6.31397        -0.78271
C          3.56215         7.83948        -0.93069
C          4.85896         5.58769        -0.68135
C          4.84925         8.57148        -0.91265
C          3.57416        10.68436        -0.90546
C          3.58272        12.18310        -1.11275
C          4.81466         9.97345        -0.99245
C          4.86279        12.78268        -0.56306
C          3.63418        15.04164        -0.40563
C          3.68345        16.45844        -0.23826
C          4.89074        14.26462        -0.31962
C          4.92231        17.15354        -0.14608
C          3.72516        19.27088         0.13887
C          4.96689        18.55662         0.05556
C          6.15950         2.28204         0.94266
C          6.23894         3.45576        -0.00679
C          7.38387         1.75142         1.38472
C          7.38061         4.41298         0.24115
C          6.06296         6.43896        -0.31172
C          6.09636         7.83361        -0.89597
C          7.38104         5.69734        -0.28700
C          7.30174         8.45638        -1.11908
C          6.07900        10.70391        -1.10662
C          6.11753        12.06541        -0.91219
C          7.31425         9.91221        -1.35038
C          7.37698        12.82748        -0.82104
C          6.17263        14.96616        -0.37637
C          6.18111        16.43221        -0.38661
C          7.37763        14.24425        -0.34315
C          7.49223        17.15873        -0.22439
C          6.20445        19.22871         0.25709
C          7.44773        18.55096         0.29701
C          8.62161         2.39638         1.14947
C          8.64741         3.87467         0.83110
C          9.82512         1.74044         1.38002
C          9.88116         4.35917         0.11474
C          8.61232         6.34900        -0.61941
C          8.58829         7.67303        -1.37930
C          9.82833         5.62493        -0.52632
C          9.88137         8.45854        -1.12230
C          8.65570        10.59708        -1.14885
C          8.66797        12.05792        -0.83921
C          9.88134         9.80345        -0.87488
C          9.78673        12.58659        -0.00037
C          8.61314        14.87431        -0.11071
C          8.80036        16.36870        -0.18515
C          9.77642        14.06756         0.29486
C          9.79782        16.85463         0.85362
C          8.60695        19.15044         0.78367
C          9.77506        18.35503         1.18302
C         11.08707         2.32017         1.02535
C         11.08924         3.60668         0.31584
C         12.27851         1.68589         1.35586
C         12.30670         4.17389        -0.03403
C         11.08380         6.21871        -1.07127
C         11.16711         7.72295        -1.49355
C         12.33027         5.47673        -0.69692
C         12.46765         8.43342        -0.99646
C         11.08479        10.52422        -0.43632
C         11.04661        11.82427         0.02150
C         12.33798         9.80114        -0.39096
C         12.21144        12.44209         0.77683
C         11.08051        14.72167         0.58550
C         11.09102        16.13946         0.87781
C         12.21799        13.96276         0.72951
C         12.26384        16.80297         1.25166
C         11.05872        18.97216         1.45756
C         12.24877        18.23887         1.51071
C         13.57122         2.12587         0.83220
C         13.58888         3.47478         0.09818
C         14.86503         1.66291         1.34722
C         14.86530         4.22149         0.06872
C         13.57068         6.23473        -0.52759
C         13.51115         7.57502        -0.34412
C         14.85018         5.56749        -0.39799
C         14.61700         8.41498        -0.90468
C         13.50834        10.44900        -0.05089
C         13.53941        11.82120         0.37456
C         14.80460         9.67655        -0.07072
C         14.75064        12.48279         0.50148
C         13.46328        14.62078         1.16759
C         13.51482        16.09624         1.26807
C         14.75413        13.85606         1.06995
C         14.73638        16.77522         1.37115
C         13.48876        18.89429         1.70598
C         14.71825        18.21571         1.57210
C         16.05953         2.31341         1.10834
C         16.07032         3.67141         0.52565
C         17.28668         1.54227         1.35548
C         17.25453         4.48802         0.34314
C         16.00949         6.27711        -0.72768
C         15.90292         7.67363        -1.23399
C         17.28009         5.70419        -0.43828
C         17.18310         8.45222        -1.31098
C         15.99516        10.51227        -0.47171
C         15.99245        11.90540        -0.00941
C         17.10157         9.91755        -1.01344
C         17.16012        12.64381        -0.06596
C         16.04196        14.62438         1.13017
C         16.01143        16.11056         1.20977
C         17.28293        13.94833         0.62731
C         17.18371        16.84976         1.02929
C         15.92881        18.92271         1.59183
C         17.15449        18.29806         1.22196
C         18.45937         2.10720         1.75397
C         18.45535         4.16397         0.99531
C         19.81945         1.60912         1.73818
C         19.71034         4.51418         0.45651
C         18.52238         6.36064        -0.76346
C         18.51388         7.75195        -1.19895
C         19.73332         5.59972        -0.49037
C         19.64865         8.52991        -1.51810
C         18.27763        10.73561        -1.37073
C         18.27849        12.17279        -0.92464
C         19.58051        10.02729        -1.65269
C         19.56907        12.92351        -0.96996
C         18.53894        14.76613         0.50074
C         18.45035        16.24242         0.64528
C         19.73315        14.18453        -0.18065
C         19.56526        17.00748         0.35670
C         18.28595        19.06527         1.01638
C         19.49754        18.51731         0.34133
C         20.87304         2.41371         1.40915
C         20.87701         3.72015         0.75618
C         22.08860         4.08668         0.15240
C         20.97796         5.81163        -1.13507
C         20.92827         7.99638        -1.88656
C         22.13529         5.11110        -0.79870
C         22.06843         8.76311        -2.05079
C         20.85021        10.82085        -1.59965
C         20.82569        12.25319        -1.39572
C         22.04512        10.15728        -1.82204
C         21.93181        13.07496        -1.55201
C         20.86645        15.05655        -0.56096
C         20.83294        16.43078        -0.08731
C         21.91824        14.46765        -1.23294
C         21.98312        17.19995        -0.00756
C         20.78753        19.15656         0.79262
C         21.96208        18.52535         0.54834
O         18.56334        13.10704        -2.03533
O          4.82967        13.24403         0.81017
O          3.16716         4.36693         1.48683
O         13.62586         8.69102        -2.02181
O         16.47152         7.99576        -2.52981
O          8.28062        12.82659        -2.00906
O          8.13536        10.32090        -2.49093
O         21.05888         6.65040        -2.24520
O          9.32530        17.26571         2.13871
O          9.37560        13.06183         1.32243
O         14.04628        13.93214         2.36575
O         18.38729         3.45308         2.18740
O         16.93146        13.92410         2.06400
O          3.43799         6.94388        -2.09839
O          4.88002         4.54485        -1.69858
O         18.70649        10.51205        -2.74529
O         13.60695         2.21677        -0.64569
O         19.60785        14.09856         1.27827
O          6.91168        17.03386        -1.56441
O         11.77323         5.40279        -2.07672
O          6.66035         2.82254        -1.25724
H          6.34820         3.40967        -1.98822
O          8.54250         7.33325        -2.79002
H          8.75160         8.15086        -3.29410
O         12.01118        12.08822         2.18140
H         12.66012        12.63041         2.69474
O         11.19023         7.76268        -2.92864
H         11.62929         6.93273        -3.23109
O          9.48362        16.62527        -1.45121
H          8.78677        16.59508        -2.14861
O          5.77630         6.70351         1.11441
H          6.61976         6.91366         1.56908
O          3.66026        12.42181        -2.55958
H          2.91507        11.94637        -2.98364
O          8.73634         4.52452         2.17512
H          9.51995         4.14166         2.62553
O         15.06554         9.20951         1.28764
H         15.06999         9.99217         1.87937
O         19.36249        18.90002        -1.08756
H         20.17009        18.57706        -1.54275
H          0.32114         1.52858         0.73759
H          0.17578         3.87217         0.03226
H          2.48456         0.44544         1.29090
H          0.19182         5.94942        -0.02101
H          0.18607         8.35336        -0.36301
H          0.22825        10.27310        -0.22357
H          0.27672        12.70039        -0.06886
H          0.22747        14.63958        -0.55125
H          0.29264        17.07960        -0.24604
H          1.58027        19.18294         0.07033
H          4.96340         0.62572         1.63696
H          3.75076        20.35895         0.29568
H          7.39022         0.76444         1.87475
H          6.17989        20.29371         0.53399
H          9.81085         0.69824         1.73406
H          8.59177        20.21839         1.04987
H         12.25221         0.80773         2.01893
H         11.11323        20.07125         1.46666
H         14.88771         0.69541         1.87233
H         13.49667        19.97902         1.88784
H         17.25264         0.46671         1.12768
H         15.91610        20.01046         1.75502
H         20.01234         0.55514         1.98952
H         18.23581        20.15263         1.18036
H         21.87195         1.94906         1.45918
H         22.99454         3.49766         0.35533
H         23.06564         5.32088        -1.34175
H         23.00197         8.27322        -2.35423
H         22.99376        10.70910        -1.85214
H         22.87139        12.66333        -1.94566
H         22.80775        15.05980        -1.49198
H         22.95280        16.76732        -0.28993
H         20.76424        20.18154         1.19014
H         22.92032        19.01396         0.77700
