         200
 CSIRO Nanostructure Databank - Neutral Graphene Oxide Data Set
C        -11.19265         0.54981         0.15230
C         -9.96663         1.34037         0.07145
C         -8.71488         0.62661         0.15854
C         -7.49278         1.38232         0.21909
C         -6.26248         0.71870         0.41270
C         -5.02870         1.40893         0.35402
C         -3.77829         0.69011         0.34440
C         -2.56392         1.40249         0.11760
C         -1.34593         0.68106        -0.05523
C         -0.11117         1.38956        -0.29083
C          1.11860         0.70046        -0.42662
C          2.37507         1.43720        -0.48455
C          3.60190         0.72809        -0.45390
C          4.81496         1.43603        -0.35764
C          6.08091         0.70833        -0.26893
C          7.29891         1.40376        -0.14671
C          8.52885         0.72061        -0.13201
C          9.82285         1.47089        -0.35483
C         10.99517         0.74506         0.26456
C         -9.97664         2.72362         0.01244
C         -8.76230         3.49659         0.00281
C         -7.50827         2.80318         0.09611
C         -6.28431         3.52366         0.10446
C         -5.03391         2.82623         0.18822
C         -3.80508         3.53784         0.11689
C         -2.57102         2.82781         0.06827
C         -1.33171         3.52363        -0.10268
C         -0.14945         2.82032        -0.30472
C          1.08120         3.54184        -0.70586
C          2.37911         2.84927        -0.56424
C          3.59933         3.57650        -0.57474
C          4.80479         2.85238        -0.42231
C          6.09321         3.56909        -0.44699
C          7.25639         2.86836         0.21118
C          8.56334         3.61511         0.06907
C          9.74238         2.94235        -0.03189
C         -8.76219         4.89931        -0.04894
C         -7.55282         5.64359        -0.03224
C         -6.30081         4.94827         0.01830
C         -5.07610         5.67461         0.00368
C         -3.82042         4.97959         0.02975
C         -2.62013         5.70364        -0.00886
C         -1.30306         5.00307         0.18836
C         -0.14657         5.76537        -0.39109
C          1.05453         5.03748        -0.82092
C          2.36239         5.76928        -0.87971
C          3.62094         5.03531        -0.64423
C          4.79294         5.76791        -0.45904
C          6.09513         5.07162        -0.44186
C          7.31110         5.76200         0.06007
C          8.48965         5.05573         0.22110
C         -7.54541         7.06804        -0.04567
C         -6.35170         7.79174        -0.01199
C         -5.09243         7.09658        -0.00687
C         -3.87106         7.82307         0.01042
C         -2.62818         7.12599        -0.01617
C         -1.39981         7.85614        -0.02110
C         -0.15189         7.16791        -0.25145
C          1.05437         7.92432        -0.30244
C          2.33642         7.26833        -0.61708
C          3.58240         7.91165        -0.18345
C          4.77883         7.19037        -0.19256
C          6.01396         7.86036         0.18148
C          7.21397         7.16800         0.29812
C         -6.32892         9.23505         0.02388
C         -5.15573         9.93073         0.08260
C         -3.87736         9.25833         0.08164
C         -2.66994         9.95356         0.16594
C         -1.41379         9.27634         0.11043
C         -0.18132         9.97467         0.19510
C          1.05274         9.30415         0.03485
C          2.31140         9.97855         0.22293
C          3.52843         9.30290         0.18678
C          4.77745         9.95985         0.49136
C          5.95433         9.27006         0.48522
C        -11.18632        -0.79817         0.09005
C         -9.92387        -1.56376        -0.21807
C         -8.69581        -0.78277         0.18291
C         -7.50535        -1.48385         0.48632
C         -6.29231        -0.70250         0.76343
C         -4.96079        -1.44418         0.83195
C         -3.74229        -0.71990         0.46203
C         -2.55347        -1.44778         0.21384
C         -1.36663        -0.72844        -0.06536
C         -0.14025        -1.45350        -0.41182
C          1.14837        -0.73467        -0.40507
C          2.34050        -1.46212        -0.42747
C          3.61706        -0.74521        -0.78573
C          4.87035        -1.45743        -0.35517
C          6.08392        -0.72003        -0.26959
C          7.32116        -1.41529        -0.09951
C          8.54630        -0.68710        -0.06053
C          9.79049        -1.39531         0.15130
C         10.98887        -0.59861         0.39666
C         -9.89416        -2.99993         0.24508
C         -8.70361        -3.66092         0.48645
C         -7.46831        -2.89175         0.57587
C         -6.22911        -3.58364         0.74381
C         -4.98738        -2.90210         0.72326
C         -3.75135        -3.59220         0.64309
C         -2.53834        -2.89543         0.35134
C         -1.35511        -3.64443         0.22967
C         -0.13465        -2.96455        -0.25350
C          1.16652        -3.61971        -0.09122
C          2.36517        -2.89049        -0.25522
C          3.62230        -3.58977        -0.16574
C          4.86709        -2.85019        -0.20306
C          6.11124        -3.55487        -0.05495
C          7.33430        -2.83571        -0.02350
C          8.58475        -3.53908         0.09991
C          9.79706        -2.77478         0.21559
C         -8.62811        -5.10265         0.58370
C         -7.43420        -5.79900         0.76013
C         -6.21696        -5.00479         0.93124
C         -4.98315        -5.56629         1.25304
C         -3.72487        -5.00009         0.88831
C         -2.52689        -5.76599         0.74677
C         -1.33417        -5.06001         0.42431
C         -0.06155        -5.75146         0.25032
C          1.16747        -5.02317         0.10503
C          2.40860        -5.72163         0.09621
C          3.64062        -4.98750         0.00772
C          4.89986        -5.70160         0.05252
C          6.12641        -4.97666         0.02165
C          7.37461        -5.67957         0.09185
C          8.58616        -4.93774         0.13728
C         -7.40375        -7.22198         0.44812
C         -6.28547        -8.04364         0.30821
C         -4.99446        -7.66526         0.82404
C         -3.78677        -8.01847         0.28203
C         -2.54238        -7.27228         0.66196
C         -1.26788        -7.93856         0.25598
C         -0.01927        -7.14779         0.17925
C          1.20326        -7.86012         0.08991
C          2.40903        -7.13896         0.16384
C          3.67904        -7.84263         0.36319
C          4.93105        -7.10627         0.17140
C          6.16575        -7.81652         0.11829
C          7.36741        -7.09856         0.09330
C         -6.24475        -9.27057        -0.46559
C         -5.05057        -9.84294        -0.80603
C         -3.75537        -9.24299        -0.50078
C         -2.56257        -9.85480        -0.81417
C         -1.25134        -9.12608        -0.69288
C         -0.01398        -9.95017        -0.45676
C          1.19936        -9.31342        -0.14528
C          2.42855       -10.00809        -0.19842
C          3.68394        -9.38779         0.19872
C          4.99521        -9.98516        -0.11362
C          6.14224        -9.26284        -0.04819
O         -0.30707        -2.33920        -1.57916
O         -4.98107        -6.79143         1.91554
O          6.93243         2.90245         1.64331
H          7.64153         2.42447         2.12286
O         -1.05330        -8.48597        -2.01760
H         -0.94668        -9.20204        -2.67904
O         10.06719         1.42079        -1.80648
H         10.07658         0.47578        -2.06862
O         -1.06808         5.05766         1.66776
H         -1.87066         4.69016         2.09786
O          3.66720        -0.78640        -2.26507
H          2.83832        -0.38008        -2.59857
O          3.65917        -8.73621         1.51872
O         -1.74267        -8.06850         1.62555
O         -9.88083        -1.65379        -1.69923
H         -9.06925        -2.15245        -1.93385
O          2.41670         6.71724        -1.98834
O         -5.63392        -0.96841         2.05101
O          0.87565         4.18490        -2.02876
O          6.36835         4.28815        -1.67295
H         11.89027        -1.12653         0.74502
H         11.91401         1.31589         0.46813
H         10.68521         3.51094        -0.07967
H          9.41503         5.60318         0.46011
H          8.11562         7.71099         0.62104
H          6.89448         9.78440         0.73437
H          4.76227        11.03122         0.73945
H          2.29853        11.04893         0.47784
H         -0.18636        11.05767         0.38790
H         -2.67987        11.05090         0.24863
H         -5.16789        11.02998         0.12531
H         -7.28880         9.77264         0.01858
H         -8.50515         7.60628        -0.06628
H         -9.72014         5.43924        -0.09365
H        -10.93823         3.25814        -0.02525
H        -12.14022         1.09136         0.29873
H        -12.12981        -1.36046         0.16139
H        -10.82816        -3.57874         0.17120
H         -9.55405        -5.67084         0.40196
H         -8.35819        -7.62704         0.06960
H         -7.18892        -9.72535        -0.80088
H         -5.04974       -10.77410        -1.39261
H         -2.56979       -10.82356        -1.33905
H         -0.02013       -11.02820        -0.68095
H          2.45073       -11.02950        -0.60791
H          5.03040       -11.05255        -0.37983
H          7.10558        -9.76199        -0.23357
H          8.32474        -7.64052         0.07139
H          9.54153        -5.47801         0.21607
H         10.74397        -3.30968         0.38490
