         280
 CSIRO Nanostructure Databank - Neutral Graphene Oxide Data Set
C         30.34869        31.77704        -1.30461
C         30.44726        32.99562        -1.50450
C         30.67819        36.32194        -1.78576
C         30.74546        37.55055        -1.72721
C         30.51509        40.51632        -0.58749
C         30.39911        41.64651        -0.09334
C         32.65251        28.78765        -1.17696
C         31.58067        29.41184        -1.12754
C         32.72667        31.52084        -0.96018
C         31.36005        30.82353        -0.83260
C         32.83671        32.99634        -1.29263
C         31.64559        33.82747        -1.72452
C         32.90396        35.98815        -0.90015
C         31.75528        35.32464        -1.64193
C         32.67789        37.41221        -0.28753
C         31.96187        38.35941        -1.34975
C         32.83859        40.37329         0.05466
C         31.77152        39.78435        -0.83933
C         32.64402        41.64901         0.84844
C         31.27758        42.37459         0.82513
C         32.60147        44.42575         1.05036
C         31.53977        43.81162         0.90722
C         35.30307        27.17778        -0.81253
C         35.22520        28.50464        -1.44060
C         33.93321        29.24305        -1.81109
C         35.28347        31.49281        -1.10586
C         33.98672        30.78804        -1.39721
C         35.23585        32.78723        -0.24421
C         33.95750        33.63531        -0.50948
C         35.22406        35.79620         0.22729
C         33.95134        35.11581        -0.25235
C         35.30586        37.32149        -0.03173
C         33.98690        38.05460         0.22642
C         35.35214        40.31017         0.40122
C         34.02844        39.53986         0.44472
C         35.27779        41.71230         1.03256
C         33.94628        42.40429         1.12809
C         35.28129        44.61921         0.78777
C         33.97130        43.91239         0.85978
C         35.48375        46.06466         0.95054
C         37.65150        26.97670        -0.16197
C         36.23945        26.59373        -0.26425
C         37.77945        28.43421        -0.63189
C         36.57925        29.20298        -1.20318
C         37.84450        31.43718        -0.79820
C         36.59446        30.71883        -1.17543
C         37.75994        32.84416        -0.27039
C         36.49950        33.66875        -0.50573
C         37.81111        35.73651         0.47592
C         36.49590        34.99731         0.28697
C         37.76534        37.22361         0.76299
C         36.47303        37.97679         0.70804
C         37.77555        40.20717         1.30008
C         36.49243        39.48298         0.96604
C         37.77487        41.73984         1.59782
C         36.56491        42.50932         1.06518
C         37.80112        44.63963         1.56635
C         36.56600        43.87394         1.12932
C         37.85000        46.17759         1.52916
C         36.56085        46.66069         1.02800
C         39.99239        24.27249         0.94316
C         38.96795        24.96127         0.83289
C         40.05036        27.10485         0.82256
C         38.70004        26.39786         0.74437
C         40.29013        28.42507         0.08608
C         38.96367        29.19533        -0.08001
C         40.35574        31.36575        -0.19115
C         39.01867        30.67699        -0.22743
C         40.35206        32.86447        -0.36733
C         39.05731        33.55957        -0.09128
C         40.25378        35.87072        -0.29318
C         39.09735        35.04493         0.19182
C         40.19412        37.35825        -0.04553
C         39.07508        37.98781         0.75957
C         40.14126        40.28325         0.17249
C         39.08339        39.48542         0.97551
C         40.28953        41.70963         0.69965
C         39.11719        42.40589         1.31630
C         40.40464        44.64885         1.30518
C         39.12888        43.90584         1.54481
C         40.43983        46.14914         1.24466
C         39.13825        46.91261         1.32015
C         40.51379        48.86271         1.82015
C         39.42599        48.26909         1.81603
C         42.65899        24.28225         0.90766
C         41.32237        24.79843         0.45291
C         42.59811        27.03426         1.30188
C         41.31335        26.28678         1.05050
C         42.57095        28.55440         1.38251
C         41.35776        29.26176         0.84552
C         42.50922        31.58137         1.23530
C         41.54147        30.69413         0.41128
C         42.68399        33.05568         0.71277
C         41.60351        33.64974        -0.16456
C         42.85394        35.93110        -0.28335
C         41.58388        35.15600        -0.38446
C         42.79554        37.43587        -0.37721
C         41.48649        38.14121        -0.18113
C         42.79739        40.36133         0.11109
C         41.51038        39.58466         0.23630
C         42.70284        41.82317        -0.24313
C         41.42415        42.54349         0.14564
C         42.86415        44.65075         0.53933
C         41.49365        44.00140         0.48690
C         43.03913        45.96413         1.26037
C         41.78312        46.75152         1.66522
C         43.16808        48.77508         1.66876
C         41.83650        48.25965         1.99644
C         43.70820        24.93438         0.88425
C         45.18106        27.16206         1.01799
C         43.91914        26.38352         0.92645
C         45.20156        28.61284         1.52990
C         43.86797        29.35068         1.63324
C         45.16470        31.69038         1.66167
C         43.84698        30.88029         1.60481
C         45.18534        33.28090         1.58584
C         43.90110        33.91260         1.00979
C         45.34861        35.97148         0.13143
C         43.97621        35.43129         0.61290
C         45.41960        37.45070        -0.21415
C         44.11558        38.19244        -0.36496
C         45.40147        40.46859        -0.16743
C         44.10414        39.68831        -0.27339
C         45.30612        41.94606        -0.43787
C         43.94419        42.60836        -0.56382
C         45.19004        44.90868        -0.54270
C         43.83314        44.16503        -0.55374
C         45.41333        46.19318         0.23882
C         44.48690        46.68024         1.32313
C         44.15691        48.13906         1.31238
C         47.61533        27.28584         1.19658
C         46.55870        26.66328         1.07162
C         47.77829        28.72712         0.91761
C         46.49931        29.40548         1.43003
C         47.80033        31.67921         1.30068
C         46.48222        30.92753         1.53943
C         47.75426        33.17010         1.08241
C         46.39459        33.71161         0.73389
C         47.66940        35.42351        -0.69370
C         46.38609        34.91558        -0.14570
C         47.60673        37.60170        -1.40491
C         46.56795        38.22744        -0.80800
C         47.81299        40.44009        -1.21655
C         46.66613        39.70799        -0.55733
C         47.67742        41.90462        -1.59337
C         46.40820        42.66265        -1.18506
C         47.67824        44.91427        -1.45090
C         46.35469        44.17516        -1.22494
C         47.68734        46.10031        -0.58851
C         46.87214        46.43721         0.27819
C         50.40215        28.99496         0.83525
C         49.03101        29.47940         0.64560
C         50.30679        31.75849         1.12241
C         49.03816        31.03802         0.63448
C         50.32119        33.23454         0.74076
C         49.00974        33.96731         0.70624
C         50.12423        36.02108        -0.40108
C         48.89476        35.17825        -0.17147
C         50.14260        37.40498        -1.12898
C         48.94004        38.18375        -1.64844
C         50.24357        40.38062        -2.03180
C         48.87018        39.68102        -2.04216
C         50.28114        41.90377        -2.07670
C         48.93377        42.64968        -2.01400
C         50.26209        44.62867        -1.47050
C         48.92105        44.18215        -1.84460
C         51.44916        29.61628         1.02975
C         52.71275        31.94195         0.91374
C         51.65651        31.03378         1.33988
C         52.68782        33.11850         0.52660
C         51.48821        33.77085        -0.14029
C         52.53012        36.05951        -0.92448
C         51.46038        35.28252        -0.26252
C         52.52162        37.27230        -1.13931
C         51.41923        38.26990        -0.86311
C         52.56283        40.50618        -1.27369
C         51.48752        39.57545        -1.61825
C         52.63375        41.73505        -1.26379
C         51.61714        42.66633        -1.73109
C         51.29704        44.00258        -1.22666
O         39.81432        36.78553        -1.33447
O         42.48405        35.34977        -1.54182
O         42.78904        33.85239         1.92654
O         35.65490        35.15596         1.45711
O         34.59163        41.88632         2.31525
O         34.66621        31.59425        -2.40974
O         45.92324        31.30172         2.82637
O         38.36768        32.89750         1.02949
O         50.93061        36.05272         0.83124
O         34.60899        44.17427        -0.41724
O         41.00760        43.55800        -0.80984
O         32.92118        35.85272        -2.34425
O         46.00569        33.60875        -0.68710
O         36.19206        28.64179        -2.49878
O         45.87059        43.39271        -2.33597
O         36.90731        39.66474         2.32909
O         36.90512        37.33734         1.92791
O         32.11290        31.24169         0.32623
O         48.18891        29.00636        -0.44406
O         37.67357        45.46928         2.76790
O         33.41640        34.18750         0.73418
O         51.12093        39.68769        -2.99220
O         41.49147        29.01379         2.25289
O         32.80989        40.66382        -1.38816
O         41.87836        26.37331         2.37727
O         45.58365        41.43452         0.89873
O         49.93121        34.08700         1.83020
O         45.80224        36.96414         1.11058
O         39.08528        27.15760         1.90563
O         32.59263        33.29311        -2.68826
O         47.96601        32.60556         2.39975
O         40.15751        41.76605         2.13641
O         51.20439        42.45184        -3.07430
O         37.51378        31.27805        -2.19607
O         39.56702        38.58233         1.99467
O         43.26009        44.68132         1.93482
O         47.85291        40.14168         0.20046
O         43.12555        42.03272        -1.62286
O         43.72460        30.12601         2.84231
O         48.17676        44.96449        -2.79241
O         31.69812        41.61052         1.96015
O         41.85605        47.26855         3.03590
O         33.84388        38.62715         1.55734
O         47.99341        42.16624        -2.98915
O         38.65534        30.04707         1.04867
O         44.14815        39.03558        -1.56921
O         47.48017        36.26888        -1.78656
O         38.17919        27.31104        -1.46339
O         44.50506        27.00790        -0.25332
O         38.68057        35.23737         1.56548
O         40.06106        44.20027         2.63565
O         41.21864        33.14775        -1.49417
O         39.80701        46.68356         0.04364
O         44.95125        46.24807        -1.11129
O         50.84431        31.46315         2.43813
O         42.29400        39.94393         1.40779
O         42.02031        37.91255        -1.50786
O         49.77210        37.36685        -2.52128
O         41.42277        30.77550        -1.03300
O         46.05727        28.78587         2.67519
O         37.62383        41.88467         3.02371
H         38.37101        41.42157         3.46159
O         31.80129        37.23632         0.81807
H         32.20189        37.64919         1.61895
O         32.84098        38.40519        -2.45969
H         32.47035        38.99329        -3.15080
O         40.83234        28.09713        -1.19469
H         41.04444        28.93319        -1.67327
O         35.24531        32.34453         1.10564
H         34.98769        33.10576         1.67965
O         51.46687        38.63132         0.49838
H         51.51007        37.80605         1.04303
O         35.68167        40.51482        -0.99058
H         34.87391        40.77976        -1.48681
O         33.77397        29.18031        -3.20785
H         34.66056        29.10114        -3.62598
O         36.49499        34.07057        -1.88677
H         36.55378        33.27254        -2.46189
O         48.39866        39.66823        -3.39240
H         49.13378        39.35626        -3.96496
O         48.94452        31.43410        -0.75325
H         48.62207        30.66909        -1.28418
O         51.33449        33.22539        -1.43999
H         52.04599        33.56624        -2.02218
O         35.59851        37.46216        -1.43801
H         34.78210        37.35637        -1.97877
O         41.77235        31.74810         2.45395
H         41.94215        30.96392         3.02978
O         41.30564        24.87732        -0.93805
H         41.29644        23.98103        -1.33097
O         45.07756        46.33978         2.55221
H         44.48151        46.59478         3.28733
O         43.67090        36.13423         1.83171
H         44.17652        35.72749         2.57095
O         43.20015        44.55421        -1.77201
H         43.74446        44.23111        -2.52281
O         45.33005        33.79376         2.90204
H         45.86779        33.14901         3.42265
O         39.66420        40.30360        -1.17957
H         40.35421        40.65330        -1.78266
