         618
 CSIRO Nanostructure Databank - Neutral Graphene Oxide Data Set
C         22.92254        69.84760         0.51049
C         22.87562        71.29897         0.55603
C         21.79171        71.99517         0.06677
C         22.95445        74.14644         0.12469
C         21.83889        73.41162        -0.14919
C         25.39715        65.59145         0.24151
C         25.37616        67.00503         0.46327
C         24.04171        67.62191         0.82381
C         25.30757        69.80998         1.17416
C         24.04129        69.13206         0.79486
C         25.31878        71.31756         1.33476
C         24.02286        72.04513         1.10952
C         25.40444        74.18683         0.82331
C         24.08000        73.54878         0.85094
C         27.74684        61.34245        -0.93617
C         27.74030        62.82956        -0.69290
C         26.60700        63.49418        -0.30802
C         27.76190        65.74665        -0.50781
C         26.54296        64.92772        -0.14097
C         27.81681        67.09349         0.16535
C         26.56744        67.74488         0.48065
C         27.76506        69.86300         0.95130
C         26.57941        69.14485         0.85557
C         27.79138        71.30711         1.08274
C         26.59621        72.02970         1.14129
C         27.84132        74.16505         0.93810
C         26.58866        73.47658         0.98153
C         30.58397        57.24982        -0.28877
C         30.34413        58.54130        -0.90614
C         29.17429        59.35649        -0.58375
C         30.33547        61.40801        -1.25859
C         29.11857        60.68034        -0.91682
C         30.28899        62.89525        -1.22364
C         28.99265        63.58218        -0.94119
C         30.32046        65.60028        -0.02587
C         29.01921        64.93240        -0.29100
C         30.30918        67.06640         0.20862
C         29.03100        67.71968         0.39581
C         30.32907        69.88702         0.80124
C         29.03566        69.11013         0.89899
C         30.24379        71.35067         0.70326
C         29.05684        72.02093         0.92295
C         30.29117        74.19274         0.87136
C         29.05919        73.48285         0.91122
C         33.07112        53.12473         0.34788
C         33.05388        54.42382        -0.29780
C         31.93941        55.23532        -0.03238
C         32.90282        57.23176        -1.15290
C         31.77228        56.56755        -0.51752
C         32.89878        58.58572        -1.40890
C         31.60953        59.29645        -1.44812
C         32.82507        61.51003        -1.59515
C         31.54679        60.76249        -1.42226
C         32.82967        62.99871        -1.35541
C         31.55279        63.65039        -0.96293
C         32.79848        65.78088        -0.64926
C         31.55821        64.92733        -0.49789
C         32.79552        66.93739         0.35346
C         31.51516        67.73968         0.31164
C         32.76764        69.86072         0.33589
C         31.56849        69.17206         0.42190
C         32.76990        71.33258         0.20778
C         31.46662        72.09416         0.34587
C         32.76137        74.18935         0.64881
C         31.52074        73.54069         0.65167
C         35.59510        48.88726         0.76950
C         35.47314        50.20331         0.27067
C         34.26582        50.89101         0.58715
C         35.51677        52.87294        -1.16564
C         33.83647        52.05356        -0.09247
C         35.40212        54.31586        -1.26762
C         34.16186        54.98285        -1.04020
C         35.40379        57.15585        -1.70631
C         34.09628        56.40311        -1.44612
C         35.42481        58.63389        -1.60055
C         34.12233        59.33565        -1.92402
C         35.29890        61.47563        -1.29552
C         34.12724        60.79493        -1.51072
C         35.31312        62.89329        -0.94864
C         34.10072        63.63535        -0.93744
C         35.28483        65.63915        -0.21178
C         34.08195        64.98169        -0.55232
C         35.27628        67.05929         0.08020
C         34.05251        67.75887         0.19975
C         35.25278        69.89654         0.35323
C         34.03208        69.16262         0.28219
C         35.24134        71.33825         0.46646
C         34.02781        72.06025         0.41400
C         35.23483        74.16957         0.67751
C         34.00692        73.48376         0.55274
C         37.92492        44.65906         1.30899
C         37.91233        45.94829         0.82713
C         36.77360        46.77251         1.01162
C         37.94257        48.72660         0.01862
C         36.75008        48.10934         0.58466
C         37.89555        50.11685        -0.33648
C         36.65516        50.81654        -0.33580
C         37.93226        52.98146        -0.70618
C         36.65058        52.18886        -0.77946
C         37.86354        54.20236        -1.63219
C         36.61284        55.01881        -1.44217
C         37.87212        57.12661        -1.41445
C         36.66611        56.43150        -1.50563
C         37.93126        58.61237        -1.65397
C         36.59430        59.30892        -1.49222
C         37.82839        61.44112        -0.88928
C         36.63621        60.82000        -1.59994
C         37.77990        62.79019        -0.53347
C         36.52933        63.53796        -0.59728
C         37.73404        65.61101         0.06869
C         36.51254        64.91930        -0.24499
C         37.72587        67.01856         0.27933
C         36.49802        67.75833         0.23662
C         37.70353        69.89253         0.60898
C         36.48526        69.18517         0.40016
C         37.69925        71.32619         0.70871
C         36.46829        72.04368         0.61788
C         37.70309        74.16891         0.83698
C         36.46951        73.47717         0.71173
C         40.27320        40.21755         1.56532
C         40.23554        41.61987         1.25377
C         39.11640        42.39448         1.45892
C         40.42203        44.51757         0.83907
C         39.15995        43.85842         1.33469
C         40.37609        45.85430         0.21574
C         39.03094        46.47105        -0.05290
C         40.30944        48.56147        -0.67853
C         39.10446        47.97371        -0.15728
C         40.29088        49.96934        -0.97553
C         39.12331        50.72413        -0.81290
C         40.28845        52.82246        -1.45938
C         39.15357        52.15745        -1.06282
C         40.32991        54.28519        -1.42496
C         39.12240        54.99647        -1.43820
C         40.30757        57.07695        -0.98091
C         39.10595        56.39957        -1.28838
C         40.18165        58.44996        -0.37450
C         39.04342        59.28709        -0.89221
C         40.22574        61.31680        -0.14356
C         39.02745        60.65940        -0.65280
C         40.19126        62.73423         0.09038
C         38.97403        63.46228        -0.07766
C         40.16020        65.56338         0.47818
C         38.95443        64.87130         0.15868
C         40.13460        66.96915         0.68160
C         38.94359        67.70840         0.56561
C         40.11084        69.85250         0.98156
C         38.93394        69.15720         0.72086
C         40.11568        71.29618         1.20665
C         38.89660        72.04788         0.94432
C         40.18515        74.17659         0.95359
C         38.92789        73.47791         0.94836
C         42.68783        35.98928         1.77798
C         42.66612        37.32142         2.04911
C         41.37271        38.08210         2.20936
C         42.72830        40.10682         1.43304
C         41.45403        39.50033         1.67673
C         42.76575        41.42408         0.78603
C         41.45988        42.22152         0.68521
C         42.76297        44.24978         0.10281
C         41.57902        43.66903         0.51017
C         42.78837        45.66860        -0.26313
C         41.52523        46.42676        -0.30407
C         42.72169        48.36110        -1.40968
C         41.47743        47.77050        -0.84994
C         42.78158        49.84485        -1.72222
C         41.40185        50.55769        -1.83091
C         42.84510        52.78771        -1.72608
C         41.52067        52.07498        -1.78940
C         42.82447        54.29151        -1.56366
C         41.54995        54.98936        -1.31608
C         42.75788        57.06588        -0.61120
C         41.53765        56.38120        -1.00489
C         42.67628        58.44251        -0.21977
C         41.48628        59.18478        -0.29611
C         42.67426        61.25445         0.33523
C         41.44894        60.58607        -0.02599
C         42.60685        62.66069         0.73788
C         41.37360        63.43053         0.48791
C         42.63489        65.55225         0.76654
C         41.39085        64.83149         0.62984
C         42.66192        66.93362         0.71810
C         41.40032        67.65580         0.98476
C         42.60528        69.89153         0.69056
C         41.38938        69.14452         1.13289
C         42.68606        71.34174         0.87665
C         41.46297        72.07381         1.23168
C         42.66574        74.17753         0.74128
C         41.42117        73.52460         0.95767
C         45.12469        33.19453         1.03712
C         43.90439        33.93422         1.20023
C         45.20199        35.78672         2.24742
C         43.91022        35.22178         1.67278
C         45.22797        37.31724         2.26004
C         43.93072        38.08506         2.22404
C         45.19488        40.16829         1.61519
C         43.95143        39.48866         1.75581
C         45.21994        41.55721         1.16706
C         44.01751        42.18371         0.74749
C         45.24046        44.16798         0.01336
C         44.01186        43.50452         0.22406
C         45.24859        45.44790        -0.79655
C         43.96928        46.24508        -0.65595
C         45.30851        48.39822        -1.10741
C         44.00777        47.61406        -1.19454
C         45.25225        49.88134        -1.08503
C         44.06381        50.59103        -1.42040
C         45.26485        52.74426        -1.04958
C         44.07208        52.01446        -1.38257
C         45.29810        54.16853        -1.03012
C         44.10729        55.01923        -1.25806
C         45.18637        57.00735        -0.20710
C         44.01569        56.38936        -0.66103
C         45.14991        58.33072         0.45136
C         43.85571        59.10114         0.37282
C         45.15142        61.25696         0.64386
C         43.89039        60.57451         0.47140
C         45.18416        62.66135         0.70459
C         43.92713        63.37725         0.96486
C         45.06738        65.48902         0.17245
C         43.97036        64.88511         1.04637
C         45.10786        66.98866         0.37943
C         43.90757        67.65255         0.57978
C         45.12476        69.88303         0.38417
C         43.87058        69.12051         0.41322
C         45.08312        71.27389         0.36279
C         43.86512        72.01301         0.58098
C         45.12431        74.15865         0.54172
C         43.88513        73.47710         0.61979
C         46.34211        33.79411         1.21019
C         47.60397        35.87846         1.50474
C         46.43145        35.17599         1.61000
C         47.67839        37.31173         1.67432
C         46.45495        38.04407         1.88637
C         47.70846        40.15801         1.74670
C         46.41989        39.43769         1.75781
C         47.70747        41.64766         1.43770
C         46.43130        42.28708         1.05009
C         47.70017        44.29797         0.27369
C         46.44243        43.57728         0.45940
C         47.70350        45.57609        -0.21259
C         46.47336        46.29254        -0.51405
C         47.69021        48.42182        -0.10053
C         46.48005        47.65850        -0.57992
C         47.68502        49.88112        -0.48147
C         46.46984        50.58406        -0.76314
C         47.70851        52.70790        -0.50609
C         46.48167        52.01421        -0.78529
C         47.74929        54.12621        -0.44979
C         46.54978        54.86171        -0.81715
C         47.63078        56.84914         0.44675
C         46.48469        56.39996        -0.43634
C         47.65465        58.35906         0.66029
C         46.40189        59.11991         0.55251
C         47.67428        61.24451         0.60181
C         46.41179        60.50669         0.62315
C         47.71119        62.73463         0.86221
C         46.40202        63.42800         0.58320
C         47.61683        65.55653         0.23401
C         46.39271        64.79989         0.39560
C         47.58545        66.98680         0.14607
C         46.34433        67.70487         0.24927
C         47.59066        69.81676         0.27468
C         46.35557        69.12477         0.29031
C         47.56182        71.27149         0.53319
C         46.35112        72.02404         0.03501
C         47.58644        74.16011         0.48263
C         46.36294        73.48888         0.41288
C         48.88340        37.98450         1.47657
C         50.14316        40.09341         1.27056
C         48.96007        39.40807         1.50598
C         50.17636        41.51928         1.05808
C         48.97063        42.24214         1.00396
C         50.23543        44.28120         0.28007
C         48.97123        43.72858         0.86356
C         50.24128        45.57585        -0.24919
C         48.96254        46.23670        -0.70607
C         50.15400        48.39780        -0.62485
C         48.98511        47.72515        -0.47024
C         50.19306        49.84678        -0.44905
C         48.91952        50.56849        -0.36165
C         50.16890        52.69790        -0.04611
C         48.91938        51.98056        -0.33327
C         50.23375        54.15959        -0.16160
C         48.96863        54.85704        -0.22040
C         50.19240        56.98358        -0.06268
C         48.93791        56.23073         0.00203
C         50.17751        58.45398         0.14199
C         48.93317        59.13368         0.59287
C         50.14756        61.30575         0.26802
C         48.88057        60.59648         0.45837
C         50.10183        62.75567         0.09264
C         48.91185        63.43877         0.26178
C         50.02697        65.60592        -0.26419
C         48.85380        64.87511         0.09634
C         50.01565        66.99910        -0.27449
C         48.80681        67.70924        -0.01410
C         50.03691        69.89829         0.00958
C         48.80600        69.14278         0.09407
C         50.09136        71.24965         0.36950
C         48.84990        71.99821         0.66928
C         50.06194        74.12622         0.68270
C         48.85703        73.48535         0.55060
C         51.40938        42.18621         0.80612
C         52.67851        44.21205         0.12182
C         51.45990        43.55674         0.42218
C         52.69860        45.57110        -0.27748
C         51.44987        46.23602        -0.49473
C         52.68989        48.37529        -0.81354
C         51.40540        47.63692        -1.04812
C         52.64883        49.83239        -0.92571
C         51.39588        50.51953        -0.53546
C         52.73663        52.69714        -0.29404
C         51.48281        51.93272        -0.14844
C         52.72179        54.11042        -0.10435
C         51.45706        54.82749        -0.05853
C         52.67578        56.97931         0.04568
C         51.48438        56.26787        -0.00563
C         52.67798        58.43995         0.03737
C         51.44354        59.16159         0.53691
C         52.65823        61.37278         0.17989
C         51.34637        60.63540         0.22119
C         52.52487        62.78764        -0.32167
C         51.32792        63.43975        -0.30549
C         52.54247        65.63823        -0.53274
C         51.24889        64.87591        -0.78597
C         52.54339        67.03993        -0.47714
C         51.23049        67.73747        -0.80214
C         52.57242        69.95413        -0.25472
C         51.24736        69.23439        -0.49225
C         52.53769        71.30830         0.31845
C         51.32347        71.95831         0.49709
C         52.58121        74.07059         0.98392
C         51.27716        73.33897         1.12345
C         53.91562        46.28509        -0.47058
C         55.15608        48.43180        -0.63983
C         53.91672        47.69591        -0.67787
C         55.21108        49.82598        -0.68379
C         53.95383        50.58930        -0.87004
C         55.18275        52.70263        -0.40900
C         53.94849        52.02053        -0.49930
C         55.18671        54.11631        -0.20871
C         53.94170        54.82079        -0.09802
C         55.13508        56.97360        -0.03600
C         53.94883        56.27357        -0.02285
C         55.14891        58.47792         0.05126
C         53.82084        59.14245        -0.20185
C         55.02664        61.35266        -0.59260
C         53.72128        60.60130        -0.62721
C         55.04375        62.73279        -0.70178
C         53.73218        63.46174        -0.94577
C         54.97798        65.62879        -0.60114
C         53.76258        64.93221        -0.58903
C         55.00696        67.03558        -0.43186
C         53.77657        67.74990        -0.36316
C         55.00972        69.83217         0.19886
C         53.81898        69.17614        -0.15624
C         54.97454        71.23844         0.55059
C         53.78631        71.95660         0.60555
C         55.03465        74.10213         0.89180
C         53.77636        73.40264         0.85360
C         56.41435        50.56174        -0.55690
C         57.64217        52.71233        -0.45135
C         56.43030        51.97942        -0.48935
C         57.65082        54.11538        -0.33547
C         56.42213        54.80531        -0.17803
C         57.56259        56.92929        -0.76328
C         56.47405        56.28476         0.10728
C         57.62190        58.42716        -0.60725
C         56.30707        59.11867        -0.68238
C         57.55537        61.31431        -0.44608
C         56.27433        60.60227        -0.81611
C         57.54602        62.79499        -0.78089
C         56.27706        63.44426        -0.85929
C         57.50936        65.69379        -0.96861
C         56.21065        64.91122        -0.98656
C         57.48391        67.06285        -0.44340
C         56.27080        67.73937        -0.29257
C         57.50246        69.78212         0.34008
C         56.26980        69.12222         0.12575
C         57.51710        71.20024         0.76735
C         56.22792        71.93795         0.89362
C         57.49873        74.07695         1.01516
C         56.24699        73.42333         0.89011
C         58.89543        54.87856        -0.38246
C         60.10374        57.02740        -0.70626
C         58.89783        56.23939        -0.55182
C         60.06860        58.39426        -0.83844
C         58.79834        59.10314        -0.74011
C         60.06407        61.27566        -0.46823
C         58.81671        60.59573        -1.01923
C         60.01978        62.77961        -0.47333
C         58.76551        63.47309        -0.86921
C         60.10877        65.67517        -0.91572
C         58.80965        64.93889        -1.07743
C         60.07472        66.97036        -0.15724
C         58.73713        67.66760         0.04259
C         59.99292        69.78713         0.52986
C         58.74975        69.11698         0.28416
C         60.01992        71.19708         0.76091
C         58.76894        71.97873         0.42455
C         59.94202        74.03070         1.19407
C         58.73254        73.39401         0.94593
C         61.27954        59.20055        -1.28644
C         62.53133        61.26391        -0.48375
C         61.37021        60.59401        -0.67545
C         62.53219        62.70899        -0.00637
C         61.35146        63.44451        -0.61878
C         62.70087        65.70343        -0.78286
C         61.40619        64.90966        -0.87272
C         62.57673        67.04918        -0.09192
C         61.32568        67.72119         0.04659
C         62.44654        69.76820         0.84694
C         61.24746        69.07276         0.49128
C         62.43188        71.13004         1.18364
C         61.20658        71.86822         1.07919
C         62.37099        74.04769         1.30332
C         61.19507        73.33052         1.20849
C         63.81930        63.48473        -0.18122
C         65.06441        65.58708        -0.01463
C         63.85969        64.85937        -0.26320
C         65.03753        66.97125         0.23246
C         63.75787        67.65596         0.32469
C         65.02654        69.74567         1.08466
C         63.70120        68.99117         0.93189
C         64.98100        71.21053         1.15999
C         63.69581        71.83266         1.50902
C         64.89511        74.08348         1.12203
C         63.66979        73.40086         1.49634
C         66.24734        67.70444         0.37579
C         67.42370        69.87205         0.50570
C         66.26828        69.08429         0.63605
C         67.39002        71.28104         0.65554
C         66.13798        71.95372         0.96820
C         67.31178        74.12398         0.69750
C         66.10095        73.40810         0.96449
C         68.54839        72.05126         0.43812
C         68.50139        73.45570         0.46766
O         44.88072        47.75269        -2.36523
O         47.77716        41.14977         2.83256
O         25.29081        70.43267         2.50605
O         53.28531        50.35804        -2.16600
O         32.81156        62.47032        -2.72085
O         29.57473        64.87642         1.04843
O         56.94008        71.39945         2.08958
O         29.49380        63.52512        -2.32096
O         50.85095        52.18940         1.16178
O         29.85170        69.34500         2.09973
O         30.66591        58.63459        -2.33251
O         42.76667        48.85371        -2.79114
O         59.34529        66.82984         1.12168
O         23.70081        72.98834         2.17008
O         44.28391        58.43301         1.63160
O         44.62713        37.85695         3.50147
O         51.91717        69.94120        -1.59219
O         50.14510        57.99644        -1.22755
O         59.92845        62.01184         0.78693
O         42.21573        52.48149        -3.02302
O         59.51954        65.56790        -2.23322
O         56.09185        59.73455        -1.99465
O         63.72145        72.60385         2.73418
O         48.41865        58.66777         1.88987
O         34.60090        56.64970        -2.81965
O         48.07951        71.58202         1.86936
O         64.38567        69.08724         2.22756
O         61.53455        63.93777        -1.97147
O         41.48099        68.31137         2.32991
O         46.80629        55.98608        -1.76056
O         41.98792        41.47414        -0.45939
O         34.34545        52.16315        -1.40927
O         40.13570        44.49659         2.29820
O         43.17148        62.84435         2.10208
O         40.81498        71.66975         2.46323
O         43.58993        54.95188        -2.63442
O         58.86864        60.75670        -2.41535
O         42.95604        69.50642        -0.69593
O         32.00310        71.77166        -0.98724
O         56.75807        65.50232        -2.21515
O         40.27527        37.38588         1.61740
H         40.36979        37.43032         0.64406
O         44.31235        65.21547         2.41334
H         43.76365        64.63878         2.99105
O         45.23893        35.34564         3.63489
H         44.81433        36.06171         4.16376
O         63.06110        66.04371        -2.15255
H         62.81780        65.26650        -2.70716
O         58.76956        72.11304        -1.03709
H         58.92128        71.22389        -1.42263
O         44.67541        65.25405        -1.21018
H         45.33248        65.68826        -1.79373
O         53.54325        63.40981        -2.38872
H         52.66768        63.82944        -2.58964
O         38.09169        53.46730         0.65482
H         38.10464        52.69094         1.25267
O         37.82757        53.68001        -2.98724
H         37.83329        54.43696        -3.60971
O         56.90767        56.44157         1.48955
H         56.22592        56.04701         2.07169
O         61.13312        59.38737        -2.70429
H         60.28281        59.91229        -2.84128
O         47.90569        62.85603         2.31869
H         47.13540        62.43371         2.75612
O         38.27750        58.75763        -3.07766
H         38.02175        59.67968        -3.33890
O         55.42945        58.80776         1.45979
H         54.70022        58.44522         2.00570
O         48.91602        46.04781        -2.15699
H         49.68393        46.54058        -2.54358
O         51.55846        59.07178         1.99136
H         52.25064        59.72408         2.25555
O         36.85625        61.09626        -3.03520
H         36.02850        60.84219        -3.50456
O         57.15882        56.69547        -2.14059
H         57.68004        57.29242        -2.71891
O         32.85849        66.31132         1.66762
H         32.66106        66.99254         2.34418
O         51.10703        67.61484        -2.26093
H         51.59147        68.38896        -2.63990
O         40.88318        50.28768        -3.16013
H         41.46210        50.76753        -3.79471
O         46.47964        71.98641        -1.42463
H         45.66859        72.38220        -1.80779
O         62.32285        62.72207         1.43781
H         62.93180        62.07034         1.84230
O         57.51606        61.18099         0.99091
H         58.33514        61.59207         1.36552
O         53.27104        60.57931        -2.00177
H         54.03416        60.30213        -2.55804
O         27.68896        66.01347        -1.94380
H         27.86724        65.17374        -2.42140
O         51.09375        73.12043         2.57063
H         50.22297        72.68247         2.69481
O         38.65784        46.00318        -1.40530
H         39.25351        46.44793        -2.04684
O         34.04679        59.32889        -3.38041
H         34.04569        58.37859        -3.65184
O         23.00522        67.08391        -0.00310
H         23.24644        67.23699        -0.93936
O         48.97641        44.21355         2.27097
H         48.43524        43.59076         2.80481
O         39.82352        58.18252         1.05037
H         40.63075        57.84349         1.49525
O         51.10636        64.82376        -2.24388
H         51.07482        65.76616        -2.55468
O         26.84650        60.68455        -0.04238
H         27.07779        60.93794         0.87445
O         47.60494        48.39396         1.36941
H         48.36360        48.90727         1.72115
O         47.32435        56.27041         1.75000
H         47.80353        56.81055         2.42028
O         45.31061        45.02997        -2.19348
H         45.30132        45.85996        -2.72897
O         53.15353        61.41272         1.56113
H         52.60181        62.05248         2.06012
O         51.27845        47.50483        -2.52326
H         52.15155        47.22402        -2.87309
O         32.73644        66.37241        -1.97203
H         32.73252        65.64942        -2.63493
H         23.03127        75.19417        -0.20079
H         25.45648        75.26762         0.62067
H         27.83620        75.26406         0.89005
H         30.27529        75.28622         0.99327
H         32.79377        75.27723         0.81116
H         35.23174        75.26527         0.77523
H         37.69954        75.26866         0.85543
H         40.16287        75.26966         0.82882
H         42.67786        75.27572         0.67047
H         45.12721        75.25252         0.66920
H         47.58275        75.25497         0.60397
H         50.11270        75.22582         0.66449
H         52.58420        75.16001         1.14259
H         55.02443        75.20063         0.95679
H         57.50835        75.16110         1.20840
H         59.94639        75.10141         1.44981
H         62.33925        75.14670         1.25062
H         64.84332        75.15844         0.89165
H         67.28550        75.22298         0.69703
H         22.00677        69.31194         0.21548
H         20.91214        71.44020        -0.29084
H         20.98404        73.88655        -0.65142
H         24.46438        65.03045         0.40548
H         23.79434        67.30675         1.87878
H         27.34107        61.16854        -1.97394
H         25.69279        62.91069        -0.11458
H         29.81130        56.81141         0.35939
H         28.27570        58.86687        -0.17736
H         32.46897        53.01267         1.26189
H         31.10612        54.79961         0.53879
H         34.72316        48.42597         1.25694
H         33.65655        50.49435         1.41383
H         37.03196        44.25882         1.81500
H         35.90156        46.36573         1.54612
H         39.33244        39.72110         1.84711
H         38.17611        41.92436         1.78475
H         41.73167        35.47098         1.59987
H         41.15146        38.14185         3.31362
H         45.06752        32.15246         0.69267
H         42.95614        33.46640         0.89537
H         47.26965        33.25306         0.97059
H         48.51279        35.36036         1.16021
H         49.79904        37.40696         1.28180
H         51.07891        39.52666         1.15444
H         52.34718        41.61530         0.87606
H         53.62795        43.66935         0.23845
H         54.87318        45.76146        -0.33887
H         56.09023        47.86411        -0.51260
H         57.36898        50.01617        -0.50608
H         58.59614        52.17111        -0.53918
H         59.84541        54.32410        -0.33017
H         61.06912        56.49759        -0.74934
H         62.22592        58.62915        -1.10773
H         63.49699        60.76017        -0.65145
H         64.74851        62.95995         0.10128
H         66.01552        65.04189         0.08679
H         67.19722        67.18853         0.16995
H         68.37089        69.39126         0.21816
H         69.49692        71.54144         0.21697
H         69.42140        74.02813         0.28403
