         466
 CSIRO Nanostructure Databank - Neutral Graphene Oxide Data Set
C         38.46761        50.66742         4.23695
C         37.42432        51.40480         4.78423
C         38.58457        53.44525         4.22074
C         37.48462        52.80415         4.77782
C         40.39735        49.18886         2.45058
C         40.64095        50.44090         3.07624
C         39.60893        51.29040         3.68930
C         40.75112        53.47982         3.02816
C         39.66991        52.72347         3.67819
C         40.56452        54.73059         2.37555
C         42.75365        48.99578         1.76210
C         41.43938        48.46206         1.89025
C         42.97943        50.32429         2.22873
C         41.97187        50.87479         3.04487
C         43.06867        53.38051         2.08558
C         42.05244        52.96191         2.98154
C         42.89014        54.70951         1.55797
C         41.62778        55.35438         1.75095
C         44.92336        46.07673         0.74433
C         43.81431        46.84217         0.99468
C         45.15445        48.88190         1.29942
C         43.89576        48.24372         1.31058
C         45.27161        50.30496         1.41431
C         44.16120        51.07696         1.86373
C         45.26586        53.10803         1.00340
C         44.17754        52.51903         1.73317
C         45.12544        54.50288         0.50738
C         43.96508        55.33337         0.86860
C         45.09721        57.34861        -0.01005
C         43.97097        56.69348         0.46659
C         47.40615        44.42095         0.66382
C         47.40102        45.86576         0.60543
C         46.25031        46.62242         0.80586
C         47.68500        48.77776         0.85419
C         46.36262        48.05705         1.14993
C         47.65063        50.23324         0.68761
C         46.48270        50.96709         0.99828
C         47.64058        53.01234         0.16068
C         46.42137        52.37066         0.71004
C         47.64792        54.48510        -0.08835
C         46.34951        55.22686        -0.03451
C         47.56575        57.35799        -0.41487
C         46.36913        56.70531        -0.11589
C         47.64605        58.75464        -0.78252
C         49.66980        44.26556        -0.32301
C         48.50487        43.67110         0.37548
C         49.70523        45.76562        -0.38735
C         48.77050        46.51911         0.54451
C         49.90755        48.65443        -0.22887
C         48.77198        48.00091         0.26131
C         49.94283        50.09068        -0.18919
C         48.86017        50.86344         0.26088
C         50.15825        52.97290         0.15231
C         48.94169        52.30957         0.27216
C         50.20928        54.48361         0.25091
C         48.91071        55.23898         0.18407
C         50.02810        57.13756        -1.06822
C         48.92078        56.74683        -0.10411
C         49.78597        58.30893        -1.99197
C         48.73165        59.24168        -1.43379
C         52.11512        41.36619        -0.16824
C         50.96886        42.09156        -0.27860
C         52.17618        44.21338        -0.39901
C         50.96824        43.53296        -0.35511
C         52.26565        45.63199        -0.78554
C         50.98727        46.44830        -0.75914
C         52.33718        48.51118        -0.83468
C         51.09826        47.90956        -0.60942
C         52.39896        49.98102        -0.95471
C         51.14223        50.79447        -0.65395
C         52.62582        52.61722        -0.01047
C         51.32278        52.17337        -0.15258
C         52.67122        54.76592        -0.10242
C         51.39940        55.27254        -0.21374
C         52.49304        57.16873        -1.42521
C         51.23468        56.50445        -0.97017
C         52.39361        58.45676        -2.17395
C         51.04377        59.02589        -2.46071
C         52.11010        60.79163        -3.78100
C         50.95001        60.16366        -3.19789
C         54.78166        39.99225        -0.20576
C         54.68335        41.31936         0.10039
C         53.38336        42.02212         0.15710
C         54.73592        44.20941        -0.21551
C         53.41910        43.54717         0.00283
C         54.74439        45.60074        -0.61745
C         53.57093        46.33216        -0.75277
C         54.80414        48.45497        -1.10968
C         53.57316        47.76715        -0.93694
C         54.87931        49.87732        -1.06715
C         53.70788        50.64451        -0.88297
C         54.98670        52.79530        -0.85354
C         53.78402        52.02294        -0.58788
C         54.96140        54.26866        -1.06021
C         53.82779        55.12832        -0.88848
C         54.93884        57.03607        -1.95767
C         53.77286        56.41592        -1.49243
C         54.95498        58.35073        -2.69057
C         53.58521        58.94397        -2.97406
C         55.48847        61.24858        -3.88750
C         53.34722        60.23886        -3.65017
C         55.69620        62.57848        -4.28944
C         57.18066        39.93896         0.30194
C         56.00911        39.28436        -0.04462
C         57.20804        41.37825         0.35534
C         55.89436        42.10033         0.58281
C         57.19209        44.25350         0.18237
C         55.90433        43.52402         0.05922
C         57.24840        45.68578        -0.29505
C         56.05730        46.16558        -1.11779
C         57.37470        48.43186        -1.23933
C         56.05199        47.68611        -1.31911
C         57.33818        49.89387        -1.07752
C         56.13319        50.59680        -1.10106
C         57.36384        52.65327        -1.76071
C         56.12686        52.04849        -1.14640
C         57.36245        54.16853        -1.81847
C         56.11679        54.90347        -1.58531
C         57.37733        57.04235        -1.80724
C         56.14292        56.29674        -1.86649
C         57.33035        58.47927        -2.03537
C         56.25970        59.12281        -2.64578
C         57.62875        61.25316        -2.81895
C         56.41719        60.53458        -3.08771
C         57.83111        62.61350        -3.17203
C         56.82327        63.27691        -3.90038
C         59.44756        37.18606         1.42138
C         58.31367        37.85189         0.96631
C         59.65213        39.88685         0.66129
C         58.40011        39.20428         0.60976
C         59.67991        41.30851         0.44149
C         58.42386        42.04963         0.34544
C         59.66503        44.17267         0.12236
C         58.46312        43.50191         0.26390
C         59.72249        45.57372        -0.22557
C         58.57528        46.29793        -0.54195
C         59.83136        48.38622        -0.85517
C         58.63290        47.69790        -0.89532
C         59.86910        49.83942        -1.09999
C         58.61159        50.61454        -0.92276
C         59.98048        52.77707        -1.54160
C         58.64699        52.08829        -1.14959
C         59.89908        54.24268        -1.18251
C         58.67543        54.95749        -1.59315
C         59.62668        57.10819        -0.68612
C         58.53389        56.39830        -1.37303
C         59.69023        58.58628        -0.89534
C         58.54512        59.23087        -1.61752
C         60.07403        61.24790        -1.95500
C         58.79796        60.52439        -2.29747
C         60.05244        62.70960        -2.05267
C         59.02006        63.34820        -2.72105
C         60.21212        65.49950        -2.58798
C         59.15657        64.76056        -3.01322
C         62.68465        35.38630         0.69027
C         62.65542        36.73796         1.04820
C         60.67744        37.84101         1.41586
C         62.15619        39.83064         0.85041
C         60.85881        39.16990         0.94742
C         62.13089        41.26050         0.72266
C         60.90468        41.97401         0.50171
C         62.04790        44.21160         0.86896
C         60.98657        43.43048         0.08690
C         62.21466        45.60604         0.29469
C         61.05552        46.19693        -0.39021
C         62.34450        48.46373        -0.38676
C         61.12165        47.68834        -0.73360
C         62.35403        49.84277        -0.52850
C         61.17606        50.59262        -1.01224
C         62.23797        52.77459        -0.37691
C         61.15048        52.06293        -0.90642
C         62.14960        54.19970        -0.21571
C         60.95302        54.89800        -0.54952
C         62.09370        57.15040        -0.02136
C         60.84975        56.36072        -0.24483
C         62.15710        58.51513        -0.27786
C         61.02334        59.24951        -0.81561
C         62.31595        61.34885        -0.82031
C         61.12456        60.58966        -1.13756
C         62.35138        62.74964        -0.95756
C         61.12425        63.45951        -1.38118
C         62.48252        65.65137        -1.39004
C         61.19149        64.96453        -1.63661
C         62.57007        67.07168        -1.66800
C         64.75889        35.78018        -0.49221
C         63.69398        34.92336        -0.14787
C         64.74251        37.12810        -0.05322
C         63.59699        37.68056         0.58952
C         64.60432        39.91202         0.65834
C         63.42871        39.13705         0.76368
C         64.56930        41.31308         0.82356
C         63.35155        42.01991         0.84493
C         64.52313        44.20188         1.09348
C         63.35446        43.46285         0.92207
C         64.57168        45.63679         0.94067
C         63.39179        46.32558         0.45158
C         64.66109        48.44255         0.48344
C         63.49134        47.74610         0.13515
C         64.79277        49.88618         0.23188
C         63.56350        50.64275        -0.28425
C         64.60315        52.79323         0.42696
C         63.45583        52.08684        -0.01614
C         64.56121        54.21090         0.57190
C         63.26162        54.90731         0.44322
C         64.49777        57.18520         0.96969
C         63.22291        56.42062         0.59466
C         64.57740        58.57439         0.38156
C         63.39517        59.25676        -0.05751
C         64.63941        61.40752         0.17082
C         63.43399        60.64153        -0.29599
C         64.69476        62.85985        -0.21217
C         63.55113        63.50677        -0.65604
C         64.79878        65.67189        -0.59087
C         63.55865        64.95874        -0.85633
C         64.72384        67.16862        -0.53639
C         63.62955        67.81599        -1.27788
C         67.27913        33.27457        -1.57925
C         66.06438        33.92716        -1.59645
C         66.95671        36.21156        -1.53670
C         65.91427        35.31665        -1.25611
C         67.18271        37.44632        -0.84826
C         66.00679        37.88646        -0.05173
C         67.07450        40.17136        -0.04779
C         65.93932        39.29329         0.43852
C         67.11487        41.43662         0.76059
C         65.82932        41.99776         1.15520
C         67.04652        44.23392         1.35581
C         65.78063        43.50835         1.39232
C         67.01575        45.64642         1.40618
C         65.77021        46.34301         1.16677
C         66.93595        48.51544         1.45594
C         65.79656        47.77625         1.04577
C         66.93811        49.94100         1.45317
C         65.85395        50.65214         0.90353
C         66.97400        52.83745         1.08341
C         65.81706        52.08722         0.80821
C         66.99323        54.24956         0.91506
C         65.75267        54.96072         0.77298
C         67.00218        57.08254         0.77426
C         65.77406        56.38808         0.76367
C         67.03363        58.51446         0.59755
C         65.82397        59.21558         0.36465
C         67.23210        61.33011        -0.25407
C         65.90508        60.61846        -0.11500
C         67.21281        62.85974        -0.55565
C         65.99568        63.56541         0.12115
C         67.23645        65.81172        -0.41475
C         65.95374        65.02428        -0.25910
C         67.14098        67.17962         0.19710
C         65.91012        67.93964        -0.03557
C         67.06845        70.04817         0.52225
C         66.00654        69.42022        -0.00933
C         71.02682        31.65779        -1.56912
C         70.67303        32.98063        -1.27953
C         68.53678        33.91790        -1.33543
C         69.95358        36.05079        -1.36961
C         68.82237        35.21551        -1.71644
C         69.71051        37.58348        -1.45783
C         68.41329        38.13018        -0.77667
C         69.56448        40.16332         0.15177
C         68.40919        39.44634        -0.16435
C         69.55287        41.48492         0.72978
C         68.28932        42.13282         0.98834
C         69.48701        44.23892         1.55235
C         68.26560        43.52956         1.36891
C         69.45140        45.65158         1.78764
C         68.21286        46.34218         1.68422
C         69.45419        48.54301         2.15125
C         68.11470        47.78111         1.95972
C         69.45168        49.99046         1.93358
C         68.14604        50.67924         1.90390
C         69.48623        52.81223         1.40451
C         68.17921        52.17699         1.62122
C         69.48895        54.20285         0.94723
C         68.22334        54.96219         0.94741
C         69.47549        57.10132         1.05045
C         68.24149        56.36260         0.86928
C         69.42373        58.52402         1.10768
C         68.27357        59.23619         0.69195
C         69.56813        61.34789         0.71285
C         68.38647        60.64080         0.37482
C         69.74305        62.77657         0.30044
C         68.56331        63.55125        -0.25008
C         69.70272        65.76948         0.56032
C         68.55820        65.07148        -0.13920
C         69.46865        67.07354         1.27547
C         68.18624        67.81832         0.96204
C         69.16234        69.85695         2.03118
C         68.34962        69.32849         0.86877
C         68.86316        71.06286         2.66996
C         73.04660        32.45257        -2.62118
C         72.22415        31.39145        -2.23420
C         72.69359        33.76604        -2.31252
C         71.50488        34.06947        -1.61544
C         72.38063        36.32912        -1.09049
C         71.21363        35.48901        -1.29932
C         72.27757        37.66680        -1.00164
C         70.97256        38.36456        -1.03164
C         72.05858        40.17184         0.49840
C         70.89110        39.62803        -0.22958
C         71.98335        41.38761         1.08286
C         70.74505        42.14357         1.10375
C         71.91614        44.24819         1.79084
C         70.72506        43.52332         1.50883
C         71.89595        45.60864         2.01173
C         70.68870        46.36550         1.97808
C         71.89531        48.55211         1.88885
C         70.70550        47.79032         2.02502
C         71.87926        49.92940         1.83292
C         70.65676        50.68226         1.83281
C         71.90801        52.88147         1.72864
C         70.67524        52.13053         1.62355
C         71.95849        54.23136         1.57529
C         70.81601        54.98089         1.04433
C         71.92384        57.22256         1.32213
C         70.72295        56.44608         1.18564
C         71.88480        58.56653         1.51155
C         70.56702        59.25451         1.74814
C         71.70774        61.45141         1.95324
C         70.60253        60.72299         1.43210
C         71.90519        62.77218         1.67291
C         70.97520        63.50352         0.81845
C         71.96769        65.79507         1.69210
C         70.97271        65.04547         0.92271
C         71.81949        67.12920         2.00802
C         70.61073        67.83425         1.80440
C         71.21980        69.71502         3.33452
C         70.34963        69.14305         2.37582
C         70.91209        70.92382         3.94974
C         69.72599        71.59418         3.63346
O         51.53106        45.95949        -2.01856
O         60.62473        50.13366        -2.33441
O         65.75575        42.55939         2.50974
O         54.24564        58.06388        -3.95954
O         57.03379        45.40580         1.11365
O         70.31538        54.46235        -0.23424
O         47.63125        53.57679        -1.22930
O         53.29243        42.91708         1.32982
O         56.77489        48.03338        -2.54408
O         49.16833        45.01957        -1.50337
O         42.35718        51.93177         3.88230
O         59.91431        60.52782        -3.24924
O         61.72284        37.13119         2.01119
O         69.46701        33.17087        -0.57719
O         68.36702        67.11526         2.25894
O         58.65347        59.32748        -0.14922
O         67.95873        51.64928         2.98323
O         67.85704        35.83038        -2.54890
O         64.66953        50.27413        -1.18257
O         71.07091        39.65976        -1.72664
O         47.34598        48.30263         2.22835
O         66.58673        60.65399        -1.39409
O         49.52132        54.94086         1.48403
O         66.35939        38.26217         1.35857
O         52.85982        53.72691         0.80927
O         68.59032        48.15212         3.28403
O         52.69158        58.47132        -0.72866
O         69.57073        63.00087        -1.14327
O         58.60086        51.60055         0.20788
O         58.15609        54.62458        -2.93925
O         60.61074        64.43055        -0.39672
O         45.38229        54.62975        -0.94334
O         54.34796        60.71586        -4.47693
O         61.33547        46.66210        -1.75354
O         59.77722        56.68180         0.71930
O         71.59704        64.33498        -0.19356
O         64.78831        67.53981         0.90833
O         51.54110        50.52341        -2.03363
O         69.58043        65.79759        -0.89841
O         62.79933        55.56433         1.71235
O         66.24839        63.50417         1.55440
H         65.66606        62.79635         1.93575
O         67.00474        63.03843        -1.96021
H         67.80414        62.70699        -2.42382
O         66.69386        40.55898        -1.41081
H         67.44746        41.04293        -1.81032
O         56.23410        45.54658        -2.42327
H         56.54783        46.25472        -3.03669
O         64.43787        57.40521         2.41599
H         63.92024        56.65165         2.78880
O         67.26144        66.12354        -1.85719
H         68.20248        66.31591        -2.08509
O         69.55222        37.83456        -2.87392
H         69.89053        38.74515        -3.03570
O         61.44605        43.42962        -1.29435
H         60.74777        43.03222        -1.85482
O         57.36475        52.18277        -3.13387
H         58.04691        52.71837        -3.60861
O         60.09836        52.68174        -2.98981
H         60.32749        51.73952        -3.19283
O         49.27485        57.42968         1.13694
H         49.71852        56.75810         1.71189
O         49.19017        57.70298        -3.19279
H         48.98335        58.42396        -3.82433
O         61.55224        44.33822         2.23270
H         62.28322        44.66689         2.79689
O         70.31999        59.16464         3.21019
H         70.27307        58.21110         3.43706
O         69.20569        69.48631        -0.31656
H         69.38501        70.44287        -0.43465
O         55.78760        42.20291         2.03934
H         54.89210        42.58070         2.22515
O         49.37327        46.38303         1.87505
H         48.81325        46.92642         2.48122
O         64.57843        61.39429         1.66108
H         63.65453        61.59739         1.92343
H         38.41589        49.56938         4.25058
H         36.55752        50.89093         5.22199
H         38.62353        54.54387         4.22368
H         36.66551        53.39434         5.21119
H         39.38213        48.76751         2.44480
H         39.58130        55.22111         2.39457
H         41.22668        47.45916         1.49553
H         41.46952        56.34887         1.31294
H         44.79768        45.01470         0.49146
H         42.82433        46.36769         0.95287
H         45.02736        58.42793        -0.20503
H         43.06101        57.29151         0.61710
H         46.50997        43.91728         1.05644
H         46.80731        59.42763        -0.54501
H         48.48457        42.58676         0.55665
H         48.77416        60.31036        -1.69315
H         52.08748        40.27513        -0.29526
H         50.01869        41.56552        -0.44928
H         51.97867        61.68027        -4.41071
H         49.96790        60.61109        -3.41082
H         53.89261        39.42228        -0.51212
H         54.93133        63.05698        -4.91434
H         55.99737        38.19639        -0.19010
H         56.92841        64.32404        -4.20644
H         59.38517        36.16060         1.80649
H         57.34641        37.33368         0.96988
H         60.33744        66.51861        -2.97870
H         58.43845        65.23884        -3.69145
H         61.91480        34.70567         1.07534
H         61.73319        67.56314        -2.18198
H         63.69679        33.87172        -0.46077
H         63.65877        68.89844        -1.46545
H         67.27439        32.17407        -1.57342
H         65.16143        33.30083        -1.64647
H         67.07546        71.14895         0.56072
H         65.11855        69.99903        -0.30531
H         70.35970        30.84207        -1.26182
H         67.94047        71.60430         2.41808
H         73.97925        32.25543        -3.16663
H         72.51195        30.35563        -2.45961
H         73.35172        34.58025        -2.64509
H         73.36946        35.85537        -1.02792
H         73.18258        38.27991        -0.90017
H         73.00699        39.61895         0.51202
H         72.87235        41.79927         1.58002
H         72.88416        43.73009         1.80763
H         72.84723        46.12002         2.21165
H         72.86333        48.03768         1.81874
H         72.83588        50.45652         1.72513
H         72.80719        52.36390         2.08985
H         72.87114        54.77443         1.85942
H         72.89463        56.71742         1.21591
H         72.81945        59.14016         1.57982
H         72.42771        60.92554         2.59464
H         72.79886        63.28869         2.04609
H         72.93949        65.31512         1.87060
H         72.66869        67.64505         2.47796
H         72.13904        69.18807         3.62450
H         71.59664        71.34434         4.69927
H         69.47624        72.54136         4.13039
