         268
 CSIRO Nanostructure Databank - Neutral Graphene Oxide Data Set
C        -10.50416         0.47316        -1.91225
C         -9.68796         1.40157        -1.04313
C         -8.45553         0.72634        -0.45032
C         -7.64851         1.56371         0.53442
C         -6.44494         0.86671         1.13718
C         -5.12740         1.63252         1.15833
C         -3.78766         0.91592         1.08665
C         -2.57626         1.64164         0.65618
C         -1.26420         0.93959         0.72238
C         -0.01292         1.58933         0.26207
C          1.15818         0.88171         0.10416
C          2.41583         1.62237        -0.23994
C          3.53443         0.81421        -0.84069
C          4.74884         1.52861        -1.37512
C          6.03976         0.75520        -1.54011
C          7.37400         1.45608        -1.30321
C          8.51812         0.67413        -0.80644
C          9.65275         1.30066        -0.22618
C         10.82569         0.47106         0.08844
C         -9.26730         2.68557        -1.78789
C         -8.40697         3.59740        -0.92160
C         -7.51814         3.01743         0.12787
C         -6.24514         3.73847         0.34625
C         -5.10786         3.06025         0.77366
C         -3.84430         3.72842         0.76179
C         -2.61613         3.03096         0.63566
C         -1.38806         3.76371         0.21297
C         -0.10359         3.03850        -0.05020
C          1.12450         3.85783        -0.19412
C          2.39785         3.11240        -0.41303
C          3.55010         3.83080        -1.07429
C          4.80403         3.05597        -1.35380
C          6.13700         3.75155        -1.15434
C          7.41725         2.96768        -1.12614
C          8.68030         3.64335        -0.54474
C          9.70906         2.67155        -0.03820
C         -8.34583         4.92619        -1.19833
C         -7.28690         5.81189        -0.73054
C         -6.15436         5.22415         0.06698
C         -4.77104         5.68917        -0.45207
C         -3.91853         5.22061         0.75250
C         -2.58381         5.89959         0.93284
C         -1.29906         5.19634         0.62037
C         -0.09645         5.98955         0.26293
C          1.08035         5.22968        -0.17803
C          2.30583         6.01611        -0.50649
C          3.58609         5.33449        -0.86530
C          4.90983         5.99286        -0.55350
C          6.15078         5.15123        -0.54993
C          7.22291         5.45359         0.45388
C          8.32935         4.68520         0.50507
C         -7.20955         7.08891        -1.18889
C         -5.93841         7.90330        -1.26380
C         -4.73410         7.21343        -0.60802
C         -3.73261         8.02933         0.14689
C         -2.60808         7.38645         0.89860
C         -1.30582         8.13430         0.78300
C         -0.09345         7.35925         0.43317
C          1.08276         8.19432        -0.07358
C          2.34102         7.35972         0.14853
C          3.61972         7.97983         0.53040
C          4.91158         7.27471         0.25705
C          5.98875         7.58017         1.25162
C          7.04744         6.52708         1.54128
C         -6.05097         9.36442        -0.86880
C         -5.09800        10.08904        -0.26443
C         -3.90037         9.50801         0.44844
C         -2.56034        10.20254         0.22085
C         -1.37018         9.58506         0.41128
C         -0.07443        10.39321         0.44813
C          1.17915         9.54634         0.62225
C          2.32248        10.04429         1.13652
C          3.70914         9.44473         0.93377
C          4.62973         9.47407         2.14653
C          5.64500         8.60123         2.29153
C        -10.27144        -0.83179        -2.09285
C         -9.02127        -1.56641        -1.65195
C         -8.23853        -0.75374        -0.58530
C         -7.74184        -1.39167         0.73193
C         -6.44165        -0.63570         1.17656
C         -5.11068        -1.29780         0.90745
C         -3.81811        -0.55038         0.82403
C         -2.48664        -1.29082         0.77390
C         -1.21988        -0.52315         1.05205
C          0.15600        -1.24637         1.14532
C          1.27048        -0.55549         0.36292
C          2.42752        -1.26724         0.11846
C          3.60244        -0.63520        -0.48574
C          4.70910        -1.36061        -0.84557
C          5.89692        -0.78007        -1.58339
C          7.20928        -1.49691        -1.22101
C          8.49642        -0.78826        -0.91629
C          9.49974        -1.61068        -0.11547
C         10.80419        -0.87399         0.04736
C         -9.28733        -3.00050        -1.24279
C         -8.44157        -3.63364        -0.41157
C         -7.64163        -2.93541         0.65497
C         -6.30632        -3.54931         0.98942
C         -5.05675        -2.76668         1.15439
C         -3.72969        -3.48781         1.19759
C         -2.46496        -2.78425         0.79542
C         -1.14337        -3.52723         0.90476
C          0.12642        -2.75408         0.90339
C          1.42919        -3.45807         1.18354
C          2.65467        -2.70646         0.61557
C          3.41155        -3.52827        -0.43377
C          4.60025        -2.83807        -1.00182
C          5.85497        -3.65916        -0.99295
C          7.15322        -2.95337        -0.85680
C          8.43417        -3.71057        -0.94781
C          9.59685        -3.02495        -0.64160
C         -8.66735        -4.79434         0.53679
C         -7.49873        -5.75555         0.62335
C         -6.17245        -5.00889         0.57415
C         -4.98729        -5.75784         1.17626
C         -3.70721        -4.97762         1.26534
C         -2.39255        -5.65003         0.99309
C         -1.17970        -4.89610         1.56943
C          0.11048        -5.71373         1.47076
C          1.42452        -4.95765         1.33423
C          2.46345        -5.74624         0.55525
C          3.41525        -5.03540        -0.35679
C          4.55355        -5.81453        -1.02001
C          5.81414        -5.08686        -1.50097
C          7.11600        -5.83146        -1.19090
C          8.34685        -5.11915        -1.09150
C         -7.49942        -7.10335         0.51655
C         -6.28774        -8.00751         0.80464
C         -4.96600        -7.22711         0.98684
C         -3.71587        -7.81905         0.24713
C         -2.38939        -7.07285         0.54381
C         -1.11447        -7.90548         0.55753
C          0.06854        -7.19140         1.22090
C          1.35527        -7.97088         1.08901
C          2.62676        -7.23015         0.80793
C          3.85109        -7.98426         0.27359
C          4.62206        -7.29700        -0.84751
C          5.89356        -8.04138        -1.30499
C          7.11992        -7.20552        -1.04192
C         -6.09373        -9.24779        -0.04324
C         -4.92470        -9.92905        -0.05308
C         -3.66475        -9.32976         0.40895
C         -2.52340       -10.00283         0.69648
C         -1.26465        -9.30351         1.18357
C          0.03773       -10.06266         0.92784
C          1.23944        -9.44254         0.88569
C          2.57069       -10.16280         0.78976
C          3.52184        -9.43727        -0.19146
C          4.86755       -10.12607        -0.34787
C          5.94836        -9.46073        -0.78013
O         -5.94397        -4.98212        -0.81026
O          2.12913        -5.53192        -0.85645
O         -0.00621        -6.68543         2.57806
O          3.61296        -2.56121         1.69203
H          3.20108        -2.91642         2.51529
O          3.95122         3.54026        -2.43618
O         -3.51624         7.67910        -1.27968
O          2.79303         7.24681         1.52869
O         -8.28133         2.57305         1.34703
O         -6.63480         0.12620         2.38383
O          3.44797        -3.15352        -1.84148
O          6.87803         1.14663        -2.65836
O         -8.18934        -1.67584        -2.83178
H         -7.66896        -0.84507        -2.91107
O          5.65729        -1.14116        -2.96881
H          6.20964        -0.53377        -3.51507
O         -8.77727        -1.07117         1.66495
H         -8.66059        -1.63201         2.46157
O         -2.01866         7.97175         2.08526
O          3.71192         1.03958        -2.27350
O          2.76819         6.00183        -1.88199
O          6.02031         8.14460        -0.09340
O        -10.55173         1.77583         0.04916
H        -10.00645         2.20435         0.75303
O          6.99183         3.66147        -2.33356
O         -4.75695         5.63200         1.90526
O          0.57910        -1.18187         2.52797
H          0.23227        -0.34201         2.91240
O         -0.73719        -8.11745        -0.81340
H         -1.12288        -7.39243        -1.35603
O         -1.04599         3.40566        -1.15669
O         -2.20635        -5.96840        -0.41006
O         -7.38071         0.18713        -1.32115
O         -0.39211        -3.33571        -0.32714
O          2.87224         2.48934         0.86133
O         -6.13146         5.84107         1.41108
O         -4.34321         1.36429         2.35627
O         -3.62900        -4.17306         2.47602
O          8.21836        -1.30474        -2.25994
O          5.88717         6.10981        -1.62569
O          4.80652        -8.04825         1.35366
H          4.47854        -8.72708         1.99103
O         -4.59832        -0.86097        -0.38551
O         -5.87549        -3.15503         2.31111
O          8.90469        -1.70216         1.22050
H          9.46421        -2.28922         1.77097
O          6.59749        -4.02468        -3.46887
H          6.02802        -3.22195        -3.61349
O         -1.32427        -4.59188         2.96147
H         -1.11438        -5.40615         3.47304
O          2.82664        -9.39881        -1.44357
H          3.38970        -8.96476        -2.11962
O          5.66572        -5.01917        -2.98077
O          0.91240         8.44306        -1.43418
O         -1.77107         5.35388         2.00321
O          2.30809        -7.62061         2.16703
O         -2.47339        -2.06231        -0.46134
O         -4.02867        -7.59407        -1.08652
O          6.43218        -3.40722         0.34079
O          9.34531         4.35248        -1.61965
H          8.64746         4.57603        -2.28317
O         -4.20144         9.64187         1.85990
H         -3.45360         9.23851         2.36274
O          1.72246        -4.08716         2.46633
O          3.94551        -6.73719        -1.99128
O         -1.28077         0.42089         2.15198
O         -8.50829         2.33765        -2.95262
H         -7.85662         1.64314        -2.70923
O          8.30104         7.15958         1.79890
H          8.50730         7.73658         1.03388
O         -8.51234        -3.75398         1.62401
O          5.86130        -8.16688        -2.75192
H          5.39374        -7.36977        -3.10431
O         -4.40251         5.05112        -1.65825
H         -3.94021         5.69830        -2.23333
O         -4.96617        -6.68737         2.33379
O         -0.16593        11.39381         1.46238
H         -0.36120        10.95639         2.31627
O          3.16909       -10.19965         2.10106
H          2.73315        -9.50860         2.65214
O         -1.40649        -9.11077         2.61287
H         -1.53390        -9.98590         3.03369
O         -5.66762         7.92975        -2.69567
H         -4.74441         8.25576        -2.79970
O         -6.63160        -8.55937         2.10427
H         -6.37774        -7.88297         2.77685
O          4.32090        10.22778        -0.10895
H          3.78678        10.13329        -0.92506
H         11.71721        -1.45241         0.25474
H         11.76370         1.00317         0.30560
H         10.63067         3.11250         0.37073
H          9.09654         4.92282         1.25912
H          6.75294         5.99753         2.49031
H          6.29028         8.64681         3.18218
H          4.44887        10.23199         2.92407
H          2.29719        11.06321         1.55989
H          0.03402        10.93324        -0.53024
H         -2.57376        11.28941         0.04237
H         -5.25754        11.17022        -0.12834
H         -6.92585         9.88725        -1.28679
H         -8.04331         7.47652        -1.79550
H         -9.03169         5.34192        -1.95300
H        -10.17224         3.24415        -2.13197
H        -11.41286         0.92189        -2.34288
H        -10.96438        -1.41129        -2.72310
H        -10.07936        -3.54861        -1.77481
H         -9.66760        -5.28308         0.55757
H         -8.46405        -7.63818         0.48743
H         -6.99680        -9.71610        -0.46345
H         -4.88055       -10.92654        -0.51853
H         -2.53328       -11.10590         0.71019
H         -0.00840       -11.15829         0.81308
H          2.42147       -11.21682         0.44105
H          4.95234       -11.18495        -0.05844
H          6.91196        -9.98343        -0.88480
H          8.08118        -7.71648        -0.87030
H          9.27260        -5.71042        -1.00938
H         10.56439        -3.55024        -0.61985
