         598
 CSIRO Nanostructure Databank - Neutral Graphene Oxide Data Set
C         23.42902        69.30912         1.86187
C         23.36894        70.71394         2.03593
C         22.15038        71.42978         1.88872
C         23.28694        73.53487         2.29583
C         22.11973        72.81551         2.03175
C         25.95386        65.07615         1.74664
C         25.86731        66.43613         2.07918
C         24.69821        67.18651         1.85378
C         25.80200        69.32679         2.44859
C         24.63085        68.59905         2.05320
C         25.79320        70.73962         2.51643
C         24.56572        71.44117         2.33216
C         25.73944        73.58370         2.64025
C         24.53033        72.86785         2.43492
C         28.41864        60.82094         1.20565
C         28.42055        62.19248         1.47232
C         27.21916        62.96396         1.47125
C         28.38768        65.00844         2.15888
C         27.18342        64.34631         1.79971
C         28.39234        66.39278         2.66279
C         27.03810        67.10693         2.69749
C         28.34687        69.38489         2.80550
C         27.00796        68.59896         2.82832
C         28.27634        70.84305         2.56562
C         27.02135        71.48495         2.63800
C         28.20795        73.63876         2.76824
C         26.97746        72.92217         2.67766
C         30.63406        56.73167        -0.37685
C         30.68079        58.10681         0.05510
C         29.64439        58.65092         0.77945
C         30.91932        60.80193         1.15748
C         29.65605        60.00058         1.45401
C         30.89762        62.26278         1.37641
C         29.67442        62.87879         1.70953
C         30.94572        65.08923         2.18650
C         29.63681        64.27311         2.15819
C         30.83143        66.56501         2.13885
C         29.63536        67.20878         2.51640
C         30.73025        69.40746         2.20211
C         29.58083        68.63719         2.52813
C         30.64766        70.83153         2.03494
C         29.46321        71.58967         2.32956
C         30.64515        73.85325         2.74719
C         29.44415        73.03288         2.54722
C         32.83823        52.75397        -2.06272
C         32.80981        54.18552        -2.02153
C         31.65848        54.79821        -1.51543
C         32.67851        57.03329        -1.74616
C         31.62535        56.17349        -1.16658
C         32.77861        58.40952        -1.21467
C         31.84562        58.90217        -0.34292
C         32.97155        61.20722        -0.29429
C         32.01043        60.24838         0.25978
C         33.08359        62.48961         0.26429
C         32.07368        63.01240         1.13384
C         32.98706        65.32415         0.75772
C         32.24593        64.40373         1.73412
C         33.15943        66.69526         1.35546
C         32.02129        67.32897         1.85278
C         33.15630        69.54236         1.78274
C         31.98700        68.76870         1.97224
C         33.08193        70.94511         1.61923
C         31.80313        71.48671         1.54870
C         33.16696        74.08837         2.17336
C         31.81600        73.63568         2.05221
C         35.21033        48.73933        -0.68605
C         35.23288        50.02881        -1.18145
C         34.03086        50.57995        -1.90738
C         35.26773        52.83575        -2.01539
C         34.03195        52.08681        -2.01876
C         35.24804        54.23461        -2.40827
C         34.02202        54.91378        -2.33913
C         35.09550        57.22324        -2.75399
C         33.87630        56.39124        -2.44071
C         35.00087        58.70336        -2.47877
C         33.80531        59.29277        -1.81245
C         35.03142        61.59640        -1.72179
C         33.82339        60.76035        -1.42224
C         35.22680        62.80653        -0.94129
C         34.21505        63.34375        -0.13406
C         35.37568        65.53988        -0.04668
C         34.26126        64.70392         0.25835
C         35.48825        66.84098         0.41716
C         34.43551        67.40020         1.27018
C         35.55494        69.74695         1.00732
C         34.45682        68.90886         1.55592
C         35.53557        71.14135         1.18230
C         34.33206        71.78549         1.84258
C         35.50046        73.97909         1.51889
C         34.27517        73.31997         1.72170
C         37.61698        44.81469         1.19254
C         37.60146        46.13217         0.70169
C         36.39501        46.78481         0.31135
C         37.62529        48.82783        -0.28355
C         36.39180        48.09817        -0.18597
C         37.60717        50.18443        -0.64777
C         36.42086        50.83184        -1.09363
C         37.62962        53.04146        -1.26399
C         36.41918        52.21530        -1.48612
C         37.64166        54.49024        -1.61099
C         36.56086        54.97698        -2.56895
C         37.73293        57.19021        -2.76624
C         36.42805        56.47917        -2.83765
C         37.86866        58.53561        -3.10966
C         35.94799        59.57235        -2.93905
C         37.60210        61.45767        -2.28565
C         36.20785        60.96670        -2.50016
C         37.66171        62.76494        -1.54873
C         36.41795        63.58648        -1.32572
C         37.81809        65.64915        -0.62498
C         36.50871        64.99147        -0.83535
C         37.88491        66.98527        -0.28193
C         36.57379        67.72656        -0.14939
C         37.87195        69.83288         0.27031
C         36.69599        69.10521         0.45933
C         37.88731        71.23828         0.48378
C         36.69449        71.89874         0.89561
C         37.89822        74.03839         0.89847
C         36.70400        73.33020         1.10760
C         40.06651        40.77357         2.64173
C         40.05538        42.13751         2.26142
C         38.84544        42.81470         1.98219
C         40.08511        44.83978         1.37109
C         38.83232        44.14943         1.52271
C         40.08761        46.17307         0.82046
C         38.85803        46.81706         0.50778
C         40.10182        48.70042        -0.43725
C         38.87404        48.13456        -0.02468
C         40.05434        49.99121        -1.15196
C         38.90544        50.87824        -0.79937
C         40.08722        52.77696        -2.05571
C         38.93543        52.30418        -1.21386
C         40.05704        54.15724        -2.63938
C         38.75676        54.96433        -2.54248
C         40.14514        57.13608        -2.50286
C         38.92938        56.45636        -2.53546
C         40.17223        58.58277        -2.43793
C         38.96431        59.33112        -2.70700
C         40.10615        61.48791        -2.31883
C         38.81585        60.75014        -2.43839
C         40.19509        62.88041        -1.83695
C         38.96982        63.44374        -1.25324
C         40.33459        65.63437        -0.87277
C         39.03254        64.85340        -0.74331
C         40.28547        67.09419        -0.77591
C         39.12096        67.70703        -0.32974
C         40.28323        69.94459        -0.49648
C         39.19769        69.12538         0.15815
C         40.22821        71.33367        -0.34603
C         39.08224        71.98749         0.21716
C         40.29190        74.14213         0.25723
C         39.08983        73.40452         0.44425
C         42.30873        36.54407         3.57629
C         42.44257        37.97921         3.48028
C         41.26979        38.69846         3.18342
C         42.53274        40.76026         2.75406
C         41.27134        40.08150         2.88583
C         42.54851        42.13125         2.36543
C         41.30730        42.83869         2.13811
C         42.55975        44.94997         1.70514
C         41.29292        44.18944         1.72748
C         42.57711        46.28694         1.03752
C         41.31199        46.83588         0.53495
C         42.58948        48.56481        -0.73118
C         41.33311        48.04574        -0.19592
C         42.58415        49.82804        -1.51717
C         41.32010        50.61972        -1.65250
C         42.60331        52.76140        -1.95389
C         41.37899        52.07489        -1.85287
C         42.62778        54.18403        -2.26366
C         41.41049        54.85018        -2.73066
C         42.66001        57.05736        -2.17515
C         41.43870        56.41961        -2.63005
C         42.57217        58.46820        -1.74631
C         41.36883        59.23571        -2.12419
C         42.62271        61.44675        -1.74920
C         41.41909        60.69014        -2.20744
C         42.65045        62.89765        -2.06527
C         41.38613        63.58933        -1.86648
C         42.62336        65.73852        -1.74911
C         41.47765        64.99988        -1.53693
C         42.66315        67.15305        -1.44741
C         41.48919        67.83437        -1.05365
C         42.66634        69.98412        -1.17896
C         41.47250        69.26996        -0.94139
C         42.65625        71.45167        -1.18769
C         41.36337        72.16644        -0.78329
C         42.68660        74.22126        -0.36772
C         41.45660        73.55446        -0.27964
C         44.79839        33.81218         4.35236
C         43.52404        34.34746         4.06334
C         45.07945        36.77718         4.29135
C         43.23555        35.72360         4.21778
C         44.97507        38.03027         3.65464
C         43.71102        38.68706         3.45220
C         45.00388        40.68447         2.71394
C         43.74717        40.04234         2.98601
C         45.00339        42.02397         2.23608
C         43.79778        42.74993         2.11398
C         45.08046        44.73043         1.16343
C         43.86473        44.19564         1.82807
C         45.06171        45.91061         0.44843
C         43.87463        46.79347         0.42179
C         45.06060        48.47421        -1.07163
C         43.78360        47.90011        -0.55538
C         45.12957        49.94622        -1.15912
C         43.87916        50.61457        -1.57277
C         45.03146        52.81947        -1.41331
C         43.81231        52.06750        -1.69368
C         45.06395        54.19963        -1.91629
C         43.86454        54.89743        -2.21423
C         45.11888        57.05235        -1.87756
C         43.89558        56.36632        -2.17461
C         45.15334        58.47679        -1.50479
C         43.84958        59.20855        -1.45937
C         45.16283        61.38611        -1.94037
C         43.90873        60.71114        -1.52280
C         45.10128        62.81958        -2.25180
C         43.83328        63.57354        -2.12174
C         45.10128        65.72183        -1.70609
C         43.85869        65.07688        -2.32303
C         45.14006        67.20270        -1.67633
C         43.90405        67.88345        -1.53818
C         45.13776        70.01666        -1.39473
C         43.89858        69.30012        -1.37095
C         45.14077        71.45581        -1.16860
C         43.93391        72.16145        -1.02949
C         45.14183        74.23890        -0.58576
C         43.91416        73.56038        -0.70058
C         46.01317        34.49539         4.41742
C         47.36512        36.45413         3.60478
C         46.18380        35.89665         4.13698
C         47.40445        37.81802         3.21662
C         46.20769        38.60708         3.21443
C         47.50483        40.59436         2.53198
C         46.24918        39.96860         2.81374
C         47.47304        42.00115         2.21603
C         46.25469        42.67067         1.93181
C         47.53732        44.45834         0.84812
C         46.29775        43.95373         1.31522
C         47.55537        45.63232        -0.03659
C         46.26228        46.33972        -0.30231
C         47.61345        48.50089        -0.65353
C         46.35263        47.74067        -0.83332
C         47.59632        49.89794        -0.85182
C         46.33264        50.59876        -1.08104
C         47.61356        52.81213        -1.16852
C         46.30747        52.08524        -1.05669
C         47.62137        54.19791        -1.73394
C         46.33653        54.82840        -2.14831
C         47.72906        57.03446        -1.89076
C         46.38420        56.39679        -2.09881
C         47.75214        58.53702        -1.87546
C         46.44133        59.26441        -1.66298
C         47.61870        61.43464        -2.11964
C         46.37042        60.71416        -2.01053
C         47.64916        62.80724        -1.97376
C         46.42869        63.57551        -2.15755
C         47.67210        65.74338        -1.65473
C         46.39660        64.98812        -1.67352
C         47.64952        67.16061        -1.67918
C         46.37219        67.89085        -1.66989
C         47.60726        70.07376        -1.65858
C         46.34637        69.31318        -1.56843
C         47.62117        71.47636        -1.20854
C         46.38538        72.15315        -1.03670
C         47.60946        74.22914        -0.58692
C         46.37670        73.56074        -0.74286
C         48.59204        38.40885         2.70830
C         49.93731        40.18950         1.73828
C         48.68815        39.76708         2.38436
C         50.44113        41.46364         1.79660
C         48.66724        42.74741         2.05833
C         50.00969        44.14017         0.37843
C         48.76060        43.86457         1.22116
C         50.07043        45.61103        -0.05438
C         48.82238        46.39229        -0.13993
C         50.09257        48.50376        -0.20091
C         48.83796        47.77168        -0.35397
C         50.03397        49.98201        -0.29916
C         48.81601        50.64627        -0.81702
C         50.07658        52.75609        -1.21842
C         48.87566        52.03305        -1.11456
C         50.18136        54.07222        -1.85876
C         48.88509        54.83658        -2.23444
C         50.21257        56.97262        -2.54260
C         48.91860        56.27600        -2.32453
C         50.18176        58.49164        -2.69794
C         48.81824        59.23181        -2.70625
C         50.18412        61.40679        -2.02288
C         48.90269        60.71717        -2.36395
C         50.13889        62.78220        -1.41510
C         48.80530        63.52901        -1.32105
C         50.11348        65.71376        -1.58630
C         48.88814        65.02336        -1.63078
C         50.11971        67.13316        -1.52838
C         48.89016        67.84011        -1.60247
C         50.14512        70.00821        -1.23379
C         48.92675        69.31195        -1.67099
C         50.10233        71.40176        -0.97921
C         48.84955        72.12742        -0.98385
C         50.05208        74.19912        -0.39475
C         48.83629        73.53401        -0.65986
C         51.49377        42.17811         1.12353
C         52.55397        44.30067         0.65261
C         51.36805        43.55368         0.83005
C         52.61351        45.68293         0.36693
C         51.36967        46.37938        -0.04858
C         52.58008        48.55094         0.24260
C         51.29460        47.85155         0.01777
C         52.63055        50.05951        -0.06708
C         51.33398        50.75093        -0.34201
C         52.66484        52.66076        -1.50227
C         51.35592        52.02029        -1.12323
C         52.70040        54.14821        -1.55121
C         51.38423        54.91349        -1.45112
C         52.64460        56.99775        -1.92091
C         51.46930        56.31356        -2.05905
C         52.76406        58.45463        -2.22708
C         51.46363        59.26594        -2.47300
C         52.66233        61.34841        -1.78649
C         51.46345        60.66110        -2.00573
C         52.69085        62.78952        -1.66663
C         51.42285        63.53031        -1.46000
C         52.66588        65.71260        -1.45400
C         51.41242        64.98763        -1.86362
C         52.61859        67.13197        -1.32064
C         51.37470        67.84923        -1.35623
C         52.57167        69.94842        -0.79466
C         51.36062        69.26270        -1.13138
C         52.53232        71.36291        -0.48999
C         51.30232        72.08095        -0.60901
C         52.46669        74.17220         0.00077
C         51.27741        73.49650        -0.34151
C         53.81840        46.39158         0.35033
C         55.04530        48.52561         0.07760
C         53.85764        47.80536         0.16494
C         55.08829        49.92894        -0.24589
C         53.89006        50.63349        -0.50632
C         55.14954        52.74873        -0.90043
C         53.98553        51.89599        -1.34154
C         55.12202        54.13456        -1.02539
C         53.86083        54.82670        -1.32051
C         55.14832        56.98406        -1.39462
C         53.79295        56.33659        -1.15378
C         55.18324        58.47225        -1.59488
C         53.92002        59.21722        -1.72895
C         55.11960        61.35218        -1.38301
C         53.90659        60.60796        -1.65959
C         55.10061        62.74746        -1.37863
C         53.88219        63.49697        -1.52153
C         55.10632        65.66779        -1.27390
C         53.89413        64.97228        -1.40634
C         55.12174        67.13874        -1.26884
C         53.83540        67.86442        -1.12979
C         55.03853        69.90231        -0.34759
C         53.80139        69.23573        -0.83224
C         54.95568        71.33507         0.11334
C         53.69407        72.05579        -0.07850
C         54.85741        74.14399         0.57607
C         53.68683        73.47262         0.14551
C         56.31969        50.63191        -0.34919
C         57.54179        52.77662        -0.37230
C         56.35226        52.04270        -0.54161
C         57.54738        54.18453        -0.48667
C         56.32790        54.88283        -0.77165
C         57.52479        57.02627        -0.55636
C         56.35317        56.29622        -0.85095
C         57.44440        58.48379        -0.55397
C         56.36656        59.20282        -1.12336
C         57.50143        61.30652        -0.64091
C         56.34349        60.61479        -1.07427
C         57.47363        62.76994        -0.56684
C         56.38730        63.48239        -1.30252
C         57.71161        65.70304        -0.96044
C         56.41558        64.98372        -1.34003
C         57.68584        67.16051        -0.66994
C         56.43666        67.86820        -1.01850
C         57.62510        70.04920        -0.27336
C         56.38180        69.33764        -0.71119
C         57.48571        71.45840         0.22221
C         56.18217        72.09576         0.34560
C         57.20859        74.08435         1.36543
C         56.10483        73.46776         0.74633
C         58.75380        54.92598        -0.37113
C         60.09052        56.98291        -0.37689
C         58.77796        56.32066        -0.37467
C         60.29279        58.19476         0.23310
C         58.42284        59.24471         0.11086
C         59.86222        61.28855         0.28355
C         58.60973        60.62100        -0.09902
C         59.88329        62.66949         0.31313
C         58.68248        63.46603        -0.03716
C         60.03533        65.60603         0.17920
C         58.87024        64.90713        -0.39824
C         60.07746        67.06948         0.00626
C         58.80956        67.83195        -0.18467
C         59.90563        69.87205         0.78768
C         58.83444        69.25364         0.09658
C         59.83446        71.26214         1.22786
C         58.64699        72.09763         0.92610
C         59.59933        74.00609         2.13222
C         58.33963        73.24065         1.87483
C         61.33865        59.17868         0.16557
C         62.34028        61.33358         0.55288
C         61.14527        60.54755         0.38649
C         62.34140        62.69186         0.81855
C         61.02416        63.41401         0.96121
C         62.31818        65.55911         1.08617
C         61.11466        64.89388         0.64779
C         62.35032        66.95103         1.21984
C         61.27022        67.77193         0.64868
C         62.15447        69.70791         1.87763
C         61.10751        69.15092         1.12188
C         62.02132        71.09997         2.36044
C         60.84604        71.87351         1.93129
C         62.01263        74.00143         2.52215
C         60.80578        73.31656         2.22391
C         63.52279        63.40542         1.15037
C         64.67060        65.48824         1.81679
C         63.49929        64.78509         1.38910
C         64.66461        66.84480         2.05864
C         63.46340        67.61202         1.82692
C         64.50976        69.67094         2.79070
C         63.35380        68.98513         2.15448
C         64.55480        71.14864         2.75200
C         63.26324        71.86025         2.76601
C         64.45804        74.02370         2.77142
C         63.26275        73.34182         2.67773
C         65.97714        67.50822         2.41374
C         67.06340        69.77577         2.86523
C         65.84263        68.94953         2.87477
C         67.00645        71.13695         2.89512
C         65.73687        71.83399         2.81909
C         66.81217        73.86716         3.70561
C         65.79830        73.34739         2.70905
C         68.25768        71.98942         2.99602
C         67.97551        73.21684         3.82815
O         27.58611        66.49153         3.89113
O         58.45532        72.37823        -0.47150
O         35.28257        61.89710        -3.14203
O         55.97538        67.63376        -2.39123
O         34.91026        67.95737         2.55734
O         27.64933        69.04518         4.04960
O         32.73481        56.88104        -3.20661
O         56.66080        64.17151        -2.55425
O         46.80044        45.38524        -1.28045
O         32.09484        60.16955         1.74967
O         43.40956        47.25048         1.74758
O         40.96002        61.23832        -3.48736
O         50.84968        45.78888        -1.30075
O         46.42716        55.62380        -3.34711
O         52.39535        58.95375        -3.54639
O         35.65228        56.80160        -4.03081
O         50.87710        63.04588        -0.17481
O         54.90935        70.16856         1.09027
O         31.66090        72.73778         0.96932
O         45.47316        52.62370         0.01922
O         49.64770        61.44575        -3.40934
O         55.37986        57.52234        -2.72506
O         36.18872        64.70693        -2.26020
O         43.03319        58.71501        -0.35512
O         39.94614        64.97081         0.38521
O         43.14819        61.26890        -0.39772
O         30.43406        64.51573         3.40373
O         36.87650        59.13184        -3.87739
O         51.87909        51.94005        -2.52033
O         50.30544        57.62685        -3.85652
O         49.79230        42.31136         2.73303
O         57.52732        63.24470         0.84874
O         64.99454        69.08461         4.05567
O         45.56895        65.12175        -0.45552
O         40.35884        49.93607        -2.57499
O         43.34072        49.85250        -2.75074
O         38.35282        62.54508        -0.25531
O         57.19525        70.04550        -1.69096
O         41.58184        55.68827        -3.89680
O         58.79846        65.23815        -1.82573
O         52.63735        49.53966         1.30782
O         45.81576        63.29173        -3.46201
O         41.73979        72.02654        -2.18722
O         37.68985        54.64618        -3.63471
O         39.29731        51.92528         0.15736
O         49.69016        54.12170        -3.22119
O         39.84607        52.99351        -3.49250
O         61.16768        67.58948        -0.81328
O         48.34087        69.85347        -2.91431
O         43.30845        44.96335         2.95884
O         47.67061        53.98691        -0.28788
O         44.06208        36.39613         5.15778
O         62.35327        71.31300         3.77876
O         33.12448        60.33049        -2.62937
O         45.93517        58.91165        -0.33855
O         48.10812        57.81352        -0.67614
O         50.51958        50.78285         0.85680
O         37.55187        54.15736        -0.23064
O         59.21970        58.61283         1.05892
O         45.74862        47.80999        -2.17954
O         60.70693        63.38578         2.39950
H         60.63032        62.44573         2.66948
O         51.46977        64.89565        -3.33386
H         51.62167        65.79673        -3.69049
O         34.55798        71.61647         3.28948
H         35.43616        71.99840         3.50142
O         32.81420        50.10444        -1.32565
H         32.79356        50.38028        -0.38661
O         69.35069        71.24127         3.52418
H         69.11452        70.94389         4.42623
O         53.48638        56.57751         0.26738
H         54.17927        56.13553         0.80473
O         39.64040        68.99566         1.56613
H         39.64324        69.89416         1.95994
O         66.84746        67.44884         1.26829
H         66.35715        67.76513         0.48215
O         32.08459        65.44581        -0.39240
H         32.58525        65.84530        -1.13506
O         51.15894        55.10491        -0.02383
H         51.87996        55.68778         0.32760
O         48.40631        63.49402         0.08287
H         49.23224        63.56333         0.61766
O         54.37109        51.45273        -2.68277
H         53.53603        51.29359        -3.18201
O         66.33681        73.65192         1.37635
H         65.65764        73.40394         0.71457
O         36.13584        68.01445        -1.52948
H         36.13181        67.16779        -2.02897
O         29.68877        59.71636         2.89277
H         30.62562        59.50946         3.11080
O         49.73145        43.39498        -0.84351
H         50.17373        43.87642        -1.57962
O         48.28143        59.17142        -4.04032
H         48.90046        59.65290        -4.63209
O         33.07232        64.25831         2.90553
H         32.49859        63.93862         3.63646
O         57.90188        72.59412         3.13064
H         57.84491        73.28733         3.82129
O         43.89612        65.33542        -3.75034
H         44.56241        64.71918        -4.13769
H         23.25057        74.62999         2.38619
H         25.70977        74.68188         2.70147
H         28.16859        74.72327         2.94887
H         30.58557        74.65156         3.50189
H         33.36324        75.10785         2.54441
H         35.51981        75.07705         1.60737
H         37.91281        75.12502         1.07112
H         40.31505        75.20230         0.55122
H         42.74143        75.27349        -0.04928
H         45.14798        75.30890        -0.33052
H         47.61597        75.30550        -0.36016
H         50.04045        75.27601        -0.17126
H         52.43719        75.25470         0.19132
H         54.79399        75.21302         0.82529
H         57.10866        75.11947         1.72587
H         59.57175        75.09611         2.27752
H         61.98722        75.09972         2.58713
H         64.45083        75.12370         2.71613
H         66.58629        74.76929         4.29258
H         22.51473        68.75988         1.59261
H         21.22716        70.87791         1.66103
H         21.16648        73.35136         1.92197
H         25.05922        64.56552         1.36182
H         23.80445        66.66907         1.47533
H         27.47022        60.30909         0.98789
H         26.27157        62.45541         1.24099
H         29.80542        56.10026        -0.02295
H         28.78662        58.00437         1.02231
H         31.89655        52.19280        -1.97417
H         30.81065        54.15893        -1.22687
H         34.26970        48.16989        -0.72698
H         34.05744        50.16624        -2.95651
H         36.66766        44.27123         1.30928
H         35.44485        46.23609         0.39174
H         39.11190        40.23337         2.72901
H         37.89305        42.27665         2.09923
H         41.45116        36.08586         3.06089
H         40.30769        38.16476         3.18924
H         44.86741        32.71242         4.36918
H         42.75711        33.67862         3.64650
H         46.92737        33.88533         4.48047
H         48.26475        35.83233         3.48809
H         49.48026        37.77095         2.58635
H         50.46576        39.42494         1.14937
H         52.47420        41.69521         0.97687
H         53.50578        43.79472         0.88051
H         54.76296        45.85215         0.51610
H         56.00138        47.98484         0.14213
H         57.25976        50.10307        -0.13457
H         58.47832        52.25013        -0.13702
H         59.69755        54.37347        -0.25329
H         60.90928        56.48520        -0.91707
H         62.37055        58.83613        -0.01231
H         63.30413        60.80131         0.52808
H         64.47228        62.85649         1.24342
H         65.60097        64.91968         1.96372
H         66.48538        66.92184         3.22237
H         68.03882        69.26912         2.81267
H         68.55605        72.31771         1.96369
H         68.75493        73.56396         4.52284
