         598
 CSIRO Nanostructure Databank - Neutral Graphene Oxide Data Set
C         22.87359        69.75329        -0.09293
C         22.83212        71.16007        -0.14694
C         21.64279        71.89061         0.01374
C         22.81009        74.04005         0.11950
C         21.65231        73.29720         0.17859
C         25.47407        65.53142        -0.61011
C         25.40059        66.93627        -0.37063
C         24.16371        67.64223        -0.18703
C         25.33307        69.82492        -0.11528
C         24.10576        69.05104        -0.16258
C         25.36882        71.20856        -0.19939
C         24.08284        71.90162        -0.41731
C         25.36388        74.10684        -0.16290
C         24.06288        73.42760        -0.31249
C         28.05959        61.37120        -1.20082
C         28.01452        62.81028        -1.19746
C         26.79414        63.45587        -0.96259
C         27.92153        65.62138        -0.95942
C         26.70766        64.86917        -0.82523
C         27.81874        67.06839        -0.87384
C         26.59987        67.67957        -0.37254
C         27.84924        69.84520         0.34181
C         26.58226        69.08256         0.08193
C         27.81531        71.34399         0.25050
C         26.59984        71.96834        -0.07638
C         27.82286        74.22822        -0.38482
C         26.54571        73.42910        -0.17698
C         30.52212        57.11680        -1.12765
C         30.47655        58.54760        -1.23991
C         29.27330        59.24987        -1.23770
C         30.47910        61.40177        -1.80799
C         29.23344        60.66873        -1.36560
C         30.49189        62.87874        -1.44591
C         29.23722        63.56166        -1.30836
C         30.39867        65.74441        -1.07783
C         29.17698        64.99094        -1.15360
C         30.41557        67.10182        -0.72292
C         29.16602        67.87920        -0.73979
C         30.26618        69.46944         0.69061
C         29.11151        69.09419         0.06187
C         30.21119        71.63068         0.98963
C         29.01041        72.14970         0.43635
C         30.28965        74.21350         0.13953
C         29.07968        73.52468         0.06607
C         32.99767        52.84013        -0.52236
C         32.96968        54.22983        -0.66352
C         31.65532        54.90348        -0.99650
C         32.96209        57.12749        -0.98927
C         31.70452        56.41771        -1.01322
C         32.94360        58.51862        -1.16453
C         31.73169        59.27249        -1.30077
C         32.98803        61.40635        -1.39374
C         31.75460        60.66950        -1.46630
C         32.98441        62.88328        -1.34205
C         31.70367        63.57273        -1.42104
C         32.95334        65.83155        -1.29275
C         31.67320        65.05506        -1.38848
C         32.93804        67.08202        -0.42093
C         31.62285        67.80615        -0.37766
C         32.72274        70.00109         0.31238
C         31.56505        69.03755         0.27393
C         32.70204        71.33554         1.11490
C         31.47006        72.19260         0.83465
C         32.76212        74.26433         0.54756
C         31.52653        73.57033         0.46756
C         35.43316        48.53767         0.05305
C         35.39521        49.99269         0.14651
C         34.22953        50.68626        -0.17872
C         35.38610        52.84164         0.02055
C         34.19250        52.11580        -0.22533
C         35.32652        54.30630         0.05081
C         34.14306        55.00247        -0.46701
C         35.45858        57.08203        -0.73574
C         34.20263        56.40472        -0.72261
C         35.49572        58.47952        -1.21845
C         34.20387        59.24142        -1.37447
C         35.40640        61.42481        -0.88587
C         34.18546        60.71308        -1.30688
C         35.52446        62.88594        -1.24566
C         34.17245        63.57774        -1.16548
C         35.46986        65.77120        -0.74457
C         34.23623        65.05500        -1.22389
C         35.47695        67.27839        -0.54541
C         34.15353        67.99680        -0.58001
C         35.31292        70.14361         0.22589
C         34.03914        69.43608        -0.12985
C         35.18951        71.48791         0.82005
C         33.98331        72.13489         0.90124
C         35.19932        74.30679         0.85287
C         33.97683        73.59923         0.84705
C         37.73048        44.12816        -0.03799
C         37.41770        45.42908        -0.49686
C         36.41730        46.31696        -0.08753
C         37.81239        48.36802        -0.83484
C         36.51547        47.73405        -0.30463
C         37.77519        50.12262         0.92212
C         36.58446        50.74734         0.47590
C         37.85572        52.87170         0.32062
C         36.60769        52.16781         0.27488
C         37.90340        54.28198         0.11227
C         36.66628        55.07110         0.10487
C         37.96262        57.05708        -0.58099
C         36.69231        56.43845        -0.43327
C         38.04957        58.50261        -0.88106
C         36.77659        59.25634        -1.07850
C         37.93024        61.45871        -0.47409
C         36.69414        60.69004        -0.66140
C         37.84321        62.86001        -0.16902
C         36.64479        63.54882        -0.45983
C         37.70139        65.68184         0.52727
C         36.51814        64.95330        -0.06559
C         37.72563        67.16281         0.56180
C         36.64838        67.91152         0.11758
C         37.67491        69.95907         1.16773
C         36.63225        69.38588         0.29619
C         37.67196        71.41653         1.51732
C         36.42235        72.19758         1.24632
C         37.66072        74.35412         1.14828
C         36.45989        73.67063         1.07447
C         40.27592        40.01105        -0.47350
C         40.28101        41.33917        -0.08204
C         38.98909        42.05094         0.21803
C         40.27266        44.21351        -0.11005
C         39.01718        43.53922        -0.07238
C         40.35469        45.65766        -0.14771
C         39.30581        46.48356        -0.60390
C         40.26087        48.51721         0.28632
C         39.15216        47.83721        -0.29864
C         40.25690        49.95624         0.58748
C         39.04382        50.71809         0.65732
C         40.33596        52.77620         0.33781
C         39.07805        52.12600         0.42988
C         40.36814        54.18190        -0.07508
C         39.12004        54.94875        -0.09342
C         40.41804        57.07374        -0.12158
C         39.16638        56.35861        -0.30267
C         40.38265        58.52917        -0.10613
C         39.25495        59.23523        -0.44162
C         40.37287        61.46714         0.09472
C         39.20089        60.72418        -0.45678
C         40.19835        62.79934         0.79945
C         38.98800        63.58773         0.37104
C         40.16132        65.72994         0.96467
C         38.98110        64.96376         0.63531
C         40.13230        67.10693         1.31648
C         38.85247        67.76891         1.23178
C         40.42064        70.12599         1.95137
C         38.59479        69.09246         1.71195
C         40.25679        71.41131         1.41413
C         38.98696        72.19503         1.61023
C         40.20641        74.53705         1.24954
C         38.96285        73.70849         1.43817
C         42.80048        36.07776        -2.26551
C         42.72314        37.20237        -1.30994
C         41.49747        37.98545        -1.15651
C         42.71202        39.91763        -0.18458
C         41.49614        39.27823        -0.61521
C         42.72495        41.28582         0.13777
C         41.50423        42.02972         0.12709
C         42.71521        44.14333         0.39391
C         41.51095        43.48241         0.18066
C         42.79072        45.60703         0.21898
C         41.52331        46.37523         0.22858
C         42.76270        48.51681         0.53820
C         41.48439        47.77222         0.37790
C         42.69219        49.91059         1.06503
C         41.46867        50.66582         0.72474
C         42.80692        52.79381         0.77165
C         41.53066        52.08136         0.61927
C         42.83846        54.23583         0.64597
C         41.67646        54.94856         0.10479
C         42.83991        57.10856         0.53187
C         41.60668        56.41134         0.20705
C         42.85745        58.49560         0.51533
C         41.58109        59.21691         0.42688
C         42.78281        61.46200         0.79869
C         41.54559        60.69019         0.59869
C         42.74020        62.83660         0.94095
C         41.48753        63.57267         0.61574
C         42.73907        65.76263         1.02328
C         41.45305        65.05521         0.74100
C         42.66929        67.19043         1.36603
C         41.41582        67.84310         1.50287
C         42.71622        69.97680         1.27253
C         41.49953        69.27992         1.57192
C         42.66131        71.36978         0.87398
C         41.34391        71.89295         0.67735
C         42.70510        74.47937         0.66678
C         41.34006        74.07986         0.61153
C         45.31545        33.90948        -3.91494
C         44.09374        34.41588        -3.50193
C         45.23751        36.50505        -2.65634
C         44.00140        35.63378        -2.75203
C         45.29135        37.43185        -1.45853
C         44.01230        37.79775        -0.80526
C         45.24386        39.82021         0.22452
C         43.95103        39.12050        -0.09454
C         45.16702        41.27644         0.48944
C         43.97629        41.95251         0.47422
C         45.26431        44.09117         0.84871
C         43.91063        43.39217         0.95494
C         45.40319        45.56114         0.47183
C         44.09990        46.32872         0.28007
C         45.28458        48.51201         1.11076
C         44.09321        47.82862         0.51111
C         45.26462        49.92389         1.30708
C         43.97456        50.64937         1.28974
C         45.23368        52.83925         1.47341
C         43.96976        52.10414         1.10329
C         45.28510        54.23273         0.90478
C         44.01334        54.97604         0.87503
C         45.29093        57.09592         1.12435
C         44.06381        56.38888         0.78271
C         45.28937        58.53450         1.22156
C         44.11763        59.21622         0.69543
C         45.13780        61.37681         1.63951
C         44.06691        60.76555         0.86668
C         44.83397        62.67953         2.10778
C         43.85887        63.50597         1.52404
C         45.20262        65.75743         1.79280
C         43.98264        64.98065         1.42922
C         45.18677        67.14856         1.54705
C         43.92070        67.87475         1.45717
C         45.17923        70.07240         1.42769
C         43.93661        69.28253         1.36965
C         45.11608        71.51725         0.97722
C         43.81467        72.15757         0.65539
C         45.09209        74.22949         0.30235
C         43.82834        73.60784         0.47252
C         46.52540        34.55320        -3.59283
C         47.72097        36.41252        -2.52455
C         46.53746        35.77141        -2.88661
C         47.72212        37.62035        -1.75977
C         46.46886        38.09387        -1.16803
C         47.71047        39.93686        -0.07766
C         46.52534        39.26169        -0.29520
C         47.72732        41.17183         0.75798
C         46.41310        41.90567         0.98460
C         47.70513        44.05176         1.39588
C         46.40919        43.38494         1.08623
C         47.68875        45.54354         1.53002
C         46.42751        46.30377         1.30779
C         47.65973        48.43590         1.85091
C         46.45321        47.78565         1.30126
C         47.70378        49.95366         1.92979
C         46.46678        50.66608         1.53748
C         47.81532        52.74159         1.33331
C         46.51140        52.04437         1.35462
C         47.86841        54.24517         1.21780
C         46.58686        54.99840         0.98487
C         47.66301        57.08143         2.00168
C         46.50202        56.41686         1.30467
C         47.69248        58.58257         1.77895
C         46.45717        59.27940         1.57043
C         47.64018        61.43806         1.97290
C         46.40505        60.71638         1.76589
C         47.69079        62.91401         1.94558
C         46.62523        63.74670         2.29594
C         47.61955        65.73664         1.33921
C         46.47245        65.09476         1.87362
C         47.60020        67.14229         1.09386
C         46.41961        67.84990         1.33873
C         47.61604        69.97650         0.65374
C         46.52475        69.34678         1.50164
C         47.56920        71.38990         0.39130
C         46.37172        72.14032         0.52166
C         47.54345        74.19407        -0.10168
C         46.33530        73.53172         0.21831
C         48.90393        38.30191        -1.51301
C         50.15562        40.15172        -0.54654
C         48.95393        39.48188        -0.69927
C         50.29766        41.33708         0.30866
C         49.05005        41.89178         0.92746
C         50.27534        44.16259         1.11079
C         49.03071        43.34947         1.30957
C         50.24800        45.52922         1.22299
C         48.97156        46.27416         1.32490
C         50.24461        48.44105         1.85747
C         48.95520        47.75913         1.52444
C         50.25957        49.92998         2.11414
C         48.99890        50.67358         1.94872
C         50.28378        52.78727         1.86424
C         49.04545        52.03985         1.76780
C         50.27773        54.23073         1.86120
C         49.06164        54.97040         1.70240
C         50.20915        57.10674         1.99336
C         49.00222        56.37143         1.83458
C         50.17683        58.57535         1.95393
C         48.89274        59.29323         1.90749
C         50.13461        61.48906         1.96448
C         48.85724        60.72786         1.93682
C         50.13795        62.92935         1.56011
C         48.83401        63.60421         1.44816
C         49.91248        65.59753         0.41339
C         48.79537        64.96841         1.14700
C         49.91702        67.06019         0.24326
C         48.80607        67.79702         0.58739
C         49.96032        69.89136        -0.09643
C         48.76724        69.24047         0.36097
C         49.96940        71.31570        -0.19255
C         48.76421        72.05580        -0.01376
C         49.99503        74.14754        -0.42035
C         48.76537        73.48391        -0.19099
C         51.49346        42.20096         0.22463
C         52.74792        44.25196         0.74707
C         51.51606        43.49348         0.70412
C         52.76176        45.61841         0.95265
C         51.47427        46.33528         0.99624
C         52.76628        48.52520         1.57431
C         51.48959        47.81858         1.32130
C         52.76531        49.91509         1.83526
C         51.53759        50.65964         1.96354
C         52.79563        52.79201         2.30994
C         51.50848        52.06829         1.97802
C         52.76618        54.29243         2.08461
C         51.50301        54.96821         2.02644
C         52.69697        57.13221         2.22380
C         51.43730        56.39584         2.05366
C         52.66063        58.64736         2.02593
C         51.35536        59.27891         1.82279
C         52.61076        61.40496         1.16413
C         51.42446        60.75232         1.79054
C         52.57103        62.73122         0.71909
C         51.35386        63.54831         0.94796
C         52.40907        65.54851        -0.17625
C         51.17473        64.83094         0.19719
C         52.38985        66.89914        -0.45306
C         51.05582        67.64923        -0.57345
C         52.35057        69.81318        -0.60387
C         51.15066        69.14879        -0.38137
C         52.40074        71.25597        -0.57182
C         51.19224        71.99790        -0.44255
C         52.46211        74.10302        -0.57591
C         51.21717        73.43602        -0.48916
C         53.95173        46.40832         1.05518
C         55.29694        48.43849         1.50431
C         53.95922        47.76623         1.34396
C         55.24606        49.94681         1.41192
C         54.02115        50.66810         1.73843
C         55.27069        52.81572         1.62295
C         54.01943        52.05052         1.79294
C         55.15318        54.29778         1.53795
C         53.99355        54.99961         1.99304
C         55.11731        57.27909         2.06559
C         53.99350        56.45665         2.04324
C         55.09338        58.67455         1.66961
C         53.86247        59.33088         1.53857
C         55.00223        61.27925         0.49249
C         53.82140        60.66291         1.02561
C         54.93510        62.63239         0.03566
C         53.70775        63.33393         0.12062
C         54.88497        65.43692        -0.77811
C         53.59586        64.70956        -0.42195
C         54.85226        66.91311        -0.79804
C         53.62463        67.58042        -0.76861
C         54.89423        69.77926        -0.94700
C         53.57575        69.04791        -0.95586
C         54.88426        71.19732        -0.49624
C         53.63160        71.95797        -0.59335
C         54.93926        74.06775        -0.61029
C         53.67831        73.38411        -0.57123
C         56.39540        50.59863         1.09055
C         57.83690        52.60565         0.68158
C         56.55900        52.05185         1.24568
C         57.88471        53.76925        -0.02793
C         56.18785        54.95816         0.83214
C         57.89701        56.75545         0.41850
C         56.85145        56.13760         1.16181
C         58.06637        58.15932         0.56907
C         56.27197        59.36756         1.24713
C         57.45524        61.13923        -0.13711
C         56.26366        60.57403         0.52012
C         57.38357        62.55953        -0.49093
C         56.16360        63.30325        -0.36641
C         57.34869        65.42389        -0.84513
C         56.15448        64.70433        -0.60946
C         57.33432        66.87101        -0.98525
C         56.12496        67.60499        -0.89055
C         57.38498        69.73527        -0.94956
C         56.16892        69.02999        -0.87838
C         57.41168        71.18688        -0.86819
C         56.19670        71.93093        -0.47926
C         57.40026        74.06299        -0.82909
C         56.16880        73.40117        -0.64006
C         58.95680        54.62315        -0.45980
C         59.85899        56.81806        -1.03620
C         58.83710        56.03036        -0.43782
C         59.86511        58.22297        -1.00770
C         58.81225        58.95546        -0.30875
C         59.69262        61.01966        -1.27512
C         58.61167        60.37729        -0.47835
C         59.69234        62.51799        -1.47438
C         58.52647        63.27593        -0.96775
C         59.71040        65.40137        -1.61507
C         58.53766        64.68012        -1.05487
C         59.77222        66.87852        -1.45627
C         58.56267        67.58060        -1.20199
C         59.83045        69.69056        -1.43375
C         58.60393        69.00636        -1.17158
C         59.78004        71.17033        -1.51876
C         58.56751        71.89480        -1.10037
C         59.84291        74.03462        -1.04574
C         58.61472        73.34889        -0.99815
C         61.00573        58.93281        -1.44086
C         62.19035        61.06593        -1.53395
C         61.01063        60.33488        -1.39732
C         62.20762        62.49060        -1.55802
C         60.99174        63.19834        -1.62192
C         62.32547        65.37890        -2.07129
C         60.98576        64.63101        -1.91046
C         62.23866        66.78609        -1.47363
C         60.97948        67.56971        -1.62349
C         62.36114        69.68501        -2.02542
C         61.03442        68.99013        -1.62968
C         62.32930        71.16582        -1.63994
C         61.06306        71.92416        -1.52481
C         62.31050        74.02744        -0.99803
C         61.10292        73.37150        -1.15956
C         63.45047        63.20207        -1.49749
C         64.68710        65.28990        -1.18695
C         63.50240        64.59344        -1.49951
C         64.76780        66.69782        -1.13080
C         63.51673        67.50324        -1.22811
C         64.86309        69.51773        -1.21889
C         63.61042        68.96151        -1.45088
C         65.20507        70.89641        -1.46557
C         63.40059        71.98071        -1.78045
C         64.93020        73.82668        -0.95902
C         63.56156        73.19309        -0.89392
C         65.92791        67.34439        -0.69883
C         67.05509        69.44685        -0.05372
C         65.96606        68.76182        -0.61190
C         67.13160        70.87338        -0.02031
C         66.10952        71.62212        -0.71575
C         67.29824        73.72163        -0.26452
C         66.08484        73.08733        -0.71047
C         68.22294        71.58306         0.49975
C         68.30434        72.98655         0.33266
O         40.22488        61.41564        -1.33211
O         47.02219        41.09800         2.03807
O         36.61574        65.16364         1.39080
O         56.30458        52.46620         2.63864
O         54.18493        69.54759        -2.20386
O         52.74527        58.05260         3.36667
O         35.84339        54.89703         1.29927
O         41.25381        54.43655        -1.21315
O         43.36560        36.74720        -0.01728
O         57.48819        58.82029         1.66450
O         48.15362        53.41095         0.04682
O         33.20178        70.21788        -1.05306
O         30.16558        70.42420         1.69613
O         45.62404        63.22681         3.12353
O         45.12441        71.14128         2.43176
O         41.24251        59.84787         1.77120
O         51.36563        47.35932        -0.06101
O         62.65205        66.99244        -0.08132
O         56.60273        54.29837        -0.32853
O         41.14298        72.92576        -0.20913
O         46.80537        45.86697         2.65972
O         54.04845        64.81617        -1.81335
O         44.54326        39.03478         1.24877
O         28.42682        67.84602        -1.97328
O         43.55737        45.98309        -1.03512
O         43.59764        48.52324        -0.68122
O         43.11279        50.14993         2.44538
O         34.96160        67.90751        -1.76975
O         59.28979        61.59727        -2.55954
O         64.52887        71.55974        -2.48313
O         50.31746        48.91857         3.21631
O         35.76263        60.98644         0.47089
O         38.32675        45.94064        -1.44655
O         48.86533        47.22243         0.17948
O         60.01360        64.94130        -2.96672
O         23.99563        72.72871        -1.61701
O         37.63869        58.98693        -2.22378
O         48.37323        43.51898         2.60211
O         55.59450        71.42334         0.77021
O         37.77850        49.22078        -1.69751
O         51.06402        63.73992         2.37643
O         41.50677        64.37471        -0.58394
O         62.63107        65.50715        -3.42263
O         60.31490        71.70265        -2.80009
O         49.94888        41.09495         1.75258
O         35.31286        65.46139        -2.16259
O         36.76934        71.74187         2.62385
O         39.42457        69.57908         2.74523
O         39.00871        73.05101         2.78519
O         32.30326        65.77438        -2.56699
O         43.72547        65.41905         0.01830
O         36.29003        70.18512        -0.88412
O         56.39596        56.75746         2.33417
O         51.00391        61.26909         3.11765
O         50.16930        64.83744        -0.87665
O         46.01301        54.54948        -0.30249
O         34.92945        58.68651        -2.55467
O         47.51604        49.09877         3.12555
O         44.44964        60.14577        -0.39763
O         27.12157        69.25478         1.47962
O         62.45276        69.58427        -3.46400
H         61.74675        70.15545        -3.83984
O         32.71736        70.93382         2.50778
H         32.71989        71.74006         3.06460
O         35.90532        62.87727        -2.65344
H         35.88537        63.81636        -2.96040
O         46.04768        45.53383        -0.83878
H         45.32541        45.58252        -1.51085
O         50.65040        67.44755        -1.96318
H         50.48628        66.47991        -2.06997
O         37.88816        41.43378        -0.45748
H         37.94025        41.66702        -1.40686
O         56.25159        47.89474         0.58796
H         55.91613        48.03190        -0.32159
O         27.72846        75.51968         0.22664
H         27.74169        75.40129         1.19824
O         33.08851        66.50427         0.92728
H         32.82403        67.17168         1.59650
O         45.10039        37.42457        -3.80777
H         45.97725        37.83870        -3.95872
O         30.41072        61.39235        -3.27920
H         31.21764        61.83557        -3.61906
O         45.11017        53.08172         2.92797
H         44.88075        52.22862         3.35813
O         37.75220        48.98982         1.66474
H         36.82578        48.71683         1.83255
O         63.49237        72.59370         0.47029
H         63.69815        73.30707         1.11192
O         52.89818        52.68276         3.77879
H         52.93702        51.72910         4.00732
O         31.17516        54.43559        -2.27193
H         31.79321        54.74838        -2.96431
O         43.64433        43.33143         2.39856
H         44.34189        42.77781         2.81263
O         47.01230        69.49894         2.87293
H         46.63152        70.34428         3.21273
O         40.09037        62.53750         2.22310
H         39.23720        62.08975         2.40223
O         47.36912        56.93615         3.44500
H         48.06644        57.41833         3.93987
H         22.81009        75.09712         0.42272
H         25.38490        75.20829        -0.16494
H         27.90754        74.41410        -1.49272
H         30.30118        75.28506        -0.10813
H         32.78167        75.34706         0.35495
H         35.17797        75.39636         0.69814
H         37.65978        75.44524         1.00015
H         40.26603        75.45108         1.85987
H         42.93574        75.52312         0.92830
H         45.11394        75.32356         0.18662
H         47.53481        75.27920        -0.28114
H         50.00612        75.24445        -0.50366
H         52.48419        75.20247        -0.59392
H         54.92972        75.16552        -0.68500
H         57.41998        75.16262        -0.86021
H         59.83847        75.12550        -0.89957
H         62.32552        75.10019        -0.74921
H         64.99628        74.92520        -0.89811
H         67.38419        74.81642        -0.32874
H         21.93537        69.18854         0.01478
H         20.69463        71.34663         0.13309
H         20.70849        73.79574         0.44258
H         24.54823        64.93843        -0.59599
H         23.22400        67.07071        -0.18280
H         27.12730        60.82540        -0.98843
H         25.87974        62.85253        -0.86383
H         29.57116        56.56361        -1.14926
H         28.32914        58.70804        -1.07458
H         32.06681        52.27620        -0.68117
H         30.89067        54.57398        -0.24262
H         34.47731        48.02130         0.24787
H         33.32939        50.12374        -0.46687
H         36.92021        43.50984         0.37930
H         35.58724        45.94328         0.53177
H         39.31701        39.51113        -0.67303
H         38.79166        41.91642         1.32066
H         41.88312        35.49814        -2.45606
H         40.55985        37.57533        -1.56067
H         45.34811        32.95814        -4.46425
H         43.17183        33.84699        -3.69253
H         47.48144        34.08305        -3.86608
H         48.68788        35.96676        -2.80395
H         49.84240        37.92949        -1.94987
H         51.04539        39.78056        -1.07661
H         52.42265        41.75286        -0.15875
H         53.69634        43.70947         0.61778
H         54.92290        45.90699         0.92436
H         55.67967        48.19112         2.53599
H         57.26414        50.00543         0.76479
H         58.75801        52.06661         0.94584
H         59.90121        54.18480        -0.81538
H         60.68190        56.30469        -1.55469
H         61.91154        58.38467        -1.73824
H         63.14505        60.52538        -1.61174
H         64.38009        62.62017        -1.40067
H         65.56425        64.70869        -0.85675
H         66.82028        66.75809        -0.43224
H         67.88348        68.86302         0.37526
H         69.04346        71.04584         0.99621
H         69.19490        73.50870         0.71151
