         196
 CSIRO Nanostructure Databank - Neutral Graphene Oxide Data Set
C        -11.02436         0.77338         0.73898
C         -9.82978         1.50775         0.39577
C         -8.61571         0.77662         0.11934
C         -7.42417         1.48535        -0.22232
C         -6.21133         0.76759        -0.48294
C         -5.01163         1.48759        -0.69306
C         -3.77852         0.78713        -1.08270
C         -2.48658         1.48472        -0.96165
C         -1.26531         0.75905        -1.05175
C         -0.04731         1.47360        -0.92415
C          1.24791         0.77812        -0.96517
C          2.45341         1.45233        -0.44940
C          3.64749         0.70413        -0.22189
C          4.85709         1.40472         0.08761
C          6.04933         0.66981         0.36087
C          7.29243         1.38005         0.59973
C          8.50514         0.68700         0.77398
C          9.75492         1.37933         0.79085
C         10.97649         0.60472         0.83741
C         -9.82841         2.89276         0.36662
C         -8.65206         3.63974         0.03713
C         -7.43132         2.91375        -0.28735
C         -6.22100         3.60662        -0.49317
C         -4.98335         2.90470        -0.60572
C         -3.73808         3.61653        -0.67683
C         -2.49884         2.89272        -0.76708
C         -1.26000         3.60069        -0.66682
C         -0.03298         2.87919        -0.69449
C          1.20406         3.57803        -0.48209
C          2.43740         2.85152        -0.32118
C          3.65545         3.55262        -0.04278
C          4.86080         2.82886         0.14513
C          6.09375         3.53051         0.38043
C          7.30455         2.80786         0.55551
C          8.54777         3.51475         0.69969
C          9.76051         2.77858         0.77233
C         -8.66187         5.02447         0.15244
C         -7.54093         5.83916        -0.28264
C         -6.20736         5.06386        -0.62951
C         -4.94472         5.78510        -0.47264
C         -3.71725         5.04662        -0.54904
C         -2.48570         5.75010        -0.52386
C         -1.24141         5.02736        -0.57252
C         -0.00851         5.71122        -0.51550
C          1.21003         4.99556        -0.39651
C          2.44987         5.70070        -0.15986
C          3.65318         4.98254         0.02503
C          4.88355         5.67701         0.28393
C          6.09795         4.95142         0.43420
C          7.33582         5.65469         0.65011
C          8.53592         4.92910         0.74795
C         -7.39161         7.22447         0.14698
C         -6.18470         7.88589         0.05476
C         -4.94785         7.17705        -0.24411
C         -3.70812         7.87831        -0.16155
C         -2.47661         7.17802        -0.35046
C         -1.25565         7.88699        -0.30837
C          0.02193         7.20217        -0.70861
C          1.25384         7.86544        -0.15429
C          2.44927         7.13243        -0.02096
C          3.67126         7.81768         0.28085
C          4.88501         7.09541         0.40107
C          6.12204         7.79073         0.65292
C          7.31247         7.07724         0.75355
C         -6.11138         9.29836         0.36814
C         -4.93040         9.97001         0.36569
C         -3.68312         9.28525         0.11019
C         -2.46761         9.96507         0.16272
C         -1.23546         9.28510        -0.04723
C          0.00431         9.97371         0.06162
C          1.23775         9.27288         0.07248
C          2.46178         9.94439         0.35640
C          3.66440         9.24420         0.44065
C          4.91500         9.91773         0.70077
C          6.08635         9.22690         0.79274
C        -11.00753        -0.58230         0.85957
C         -9.79311        -1.33440         0.65140
C         -8.60044        -0.63195         0.25205
C         -7.39087        -1.36370         0.02896
C         -6.20148        -0.67593        -0.38533
C         -5.01005        -1.41237        -0.57218
C         -3.79068        -0.74153        -1.05288
C         -2.50108        -1.45564        -1.00129
C         -1.26058        -0.71109        -1.14764
C         -0.05479        -1.40475        -1.12380
C          1.24573        -0.71823        -1.05014
C          2.35164        -1.46527        -0.33487
C          3.65536        -0.71862        -0.29767
C          4.84224        -1.44109        -0.08818
C          6.02167        -0.73682         0.28892
C          7.19017        -1.51677         0.70057
C          8.50747        -0.76568         0.96458
C          9.75839        -1.52395         0.83587
C         10.97880        -0.76556         0.82180
C         -9.76033        -2.70929         0.85714
C         -8.55536        -3.45364         0.69307
C         -7.36581        -2.76427         0.25464
C         -6.15257        -3.49455         0.10224
C         -4.96425        -2.80490        -0.28879
C         -3.72468        -3.51849        -0.36175
C         -2.51898        -2.82613        -0.76460
C         -1.33213        -3.63997        -1.05325
C          0.02010        -2.86094        -1.26176
C          1.25515        -3.60672        -1.01922
C          2.46114        -2.91659        -0.73835
C          3.67907        -3.59747        -0.62747
C          4.88808        -2.88569        -0.27183
C          6.10719        -3.56892        -0.16668
C          7.27354        -2.92623         0.32363
C          8.49310        -3.62254         0.51104
C          9.70725        -2.91273         0.75535
C         -8.50259        -4.82191         0.98242
C         -7.31032        -5.58593         0.80952
C         -6.11625        -4.90185         0.33333
C         -4.88252        -5.58413         0.24369
C         -3.68454        -4.88798        -0.03424
C         -2.35442        -5.56483         0.20984
C         -1.22579        -5.01229        -0.61555
C         -0.03177        -5.73359        -0.79566
C          1.22954        -5.03429        -1.05212
C          2.46243        -5.73494        -1.02228
C          3.71153        -5.03671        -0.82012
C          4.92774        -5.71950        -0.73109
C          6.23747        -4.97893        -0.68171
C          7.36011        -5.74837        -0.00638
C          8.47253        -5.06238         0.42905
C         -7.27227        -6.93253         1.17576
C         -6.12563        -7.77266         0.84518
C         -4.86026        -7.05233         0.36579
C         -3.57080        -7.75533         0.48978
C         -2.38867        -7.07037         0.21383
C         -1.17215        -7.78713         0.04936
C         -0.01682        -7.12791        -0.46169
C          1.14275        -7.93462        -0.81713
C          2.45364        -7.18779        -1.17866
C          3.73281        -7.96090        -1.08410
C          5.01281        -7.18075        -0.89858
C          6.19854        -7.89556        -0.36550
C          7.30676        -7.18267         0.03786
C         -5.93762        -9.11714         1.42152
C         -4.75565        -9.77594         1.31241
C         -3.54899        -9.14892         0.80104
C         -2.32924        -9.83977         0.74169
C         -1.14693        -9.19938         0.31233
C          0.09341        -9.91032         0.20523
C          1.23327        -9.31995        -0.31534
C          2.50317        -9.99189        -0.31607
C          3.69447        -9.36864        -0.63392
C          4.96289       -10.02809        -0.42592
C          6.13420        -9.33370        -0.28954
O          6.65523        -4.84116        -2.09392
H          6.48559        -5.70209        -2.53446
O          1.87905        -1.49712         1.06520
H          2.59500        -1.88608         1.61174
O         -7.09685         5.58449        -1.65388
O          4.61183        -7.69127        -2.22840
O         -3.95094        -0.00206        -2.31223
O          0.11828         7.39145        -2.18427
H          0.11612         8.35930        -2.34679
O         -2.02344        -5.19144         1.61342
H         -1.19784        -5.66544         1.85152
O          7.64801        -1.22152         2.06369
O          1.57353        -7.71878        -2.20493
O         -0.76260        -3.38211        -2.36658
O         -5.75841        -7.70970        -0.58633
O          1.57293         0.04584        -2.23478
H         11.93397        -1.31126         0.80430
H         11.93167         1.15007         0.84530
H         10.71634         3.32106         0.82274
H          9.48515         5.47010         0.87782
H          8.25649         7.61434         0.93038
H          7.03059         9.75735         0.98541
H          4.90460        11.01146         0.81833
H          2.45116        11.03376         0.51070
H         -0.00021        11.05614         0.25614
H         -2.45473        11.04259         0.38502
H         -4.90041        11.04756         0.58412
H         -7.05093         9.82680         0.58685
H         -8.26891         7.74475         0.56072
H         -9.52760         5.52231         0.61488
H        -10.75128         3.44291         0.60366
H        -11.95112         1.33829         0.91730
H        -11.92055        -1.12969         1.13621
H        -10.67282        -3.23443         1.17688
H         -9.40946        -5.33087         1.34182
H         -8.13357        -7.38047         1.69371
H         -6.79510        -9.59636         1.91741
H         -4.66791       -10.80297         1.69808
H         -2.29817       -10.90911         0.99879
H          0.13335       -10.95650         0.54451
H          2.52980       -11.03056         0.04811
H          4.95879       -11.11840        -0.27968
H          7.06063        -9.87696        -0.05027
H          8.17548        -7.72239         0.44742
H          9.35397        -5.62045         0.78236
H         10.64849        -3.48367         0.76408
