         349
 CSIRO Nanostructure Databank - Neutral Graphene Oxide Data Set
C          1.47952         2.07234         1.18010
C          1.39163         3.48490         0.94552
C          2.67924         1.41176         1.15558
C          2.51441         4.22704         0.68436
C          1.70034         6.46458         1.33653
C          1.74052         7.89894         1.24650
C          2.51482         5.68442         0.56879
C          2.47869         8.55969         0.31219
C          1.36369        10.79627         0.91419
C          1.35373        12.15761         0.83744
C          2.32636        10.02518         0.12727
C          2.45094        12.90460         0.28855
C          1.24691        15.15848         0.71920
C          1.33057        16.49904         0.93637
C          2.41783        14.38070         0.28229
C          2.59299        17.19746         0.99318
C          2.65973        18.57128         1.34386
C          3.90666         2.10714         0.87714
C          3.84341         3.57640         0.72750
C          5.09703         1.44744         0.66369
C          5.05071         4.31512         0.23826
C          3.51081         6.31560        -0.34483
C          3.31838         7.80411        -0.71567
C          4.81395         5.58633        -0.53737
C          4.67282         8.55035        -1.01617
C          3.53167        10.82378        -0.44899
C          3.62177        12.24880        -0.10890
C          4.76450        10.06297        -0.88802
C          4.92244        12.89725        -0.00976
C          3.78296        15.08507         0.35665
C          3.80333        16.46881         0.86182
C          4.99714        14.25409         0.41266
C          5.02687        17.06143         1.19154
C          3.87601        19.19204         1.55030
C          5.09402        18.45237         1.49973
C          6.30528         2.09967         0.24512
C          6.41032         3.61446         0.10289
C          7.45060         1.37269         0.04972
C          7.20638         4.03811        -1.16086
C          6.03735         6.29662        -0.97344
C          5.98269         7.77742        -1.13189
C          7.20957         5.59982        -1.18359
C          7.27897         8.53948        -0.89027
C          6.11899        10.82422        -0.88210
C          6.11730        12.15181        -0.14045
C          7.29872         9.95614        -0.48666
C          7.36189        12.73816         0.22553
C          6.23035        14.82540         0.80747
C          6.23294        16.22029         1.32928
C          7.41432        14.07900         0.71508
C          7.54359        16.92057         1.56860
C          6.35434        19.10067         1.60800
C          7.57171        18.40347         1.47632
C          8.64935         2.00335        -0.45255
C          8.56824         3.28332        -1.09436
C          9.87418         1.33177        -0.41917
C          9.74581         3.71842        -1.70546
C          8.44108         6.36419        -1.21951
C          8.50580         7.73319        -0.74895
C          9.62299         5.80399        -1.65635
C          9.71165         8.36978        -0.59395
C          8.50399        10.56761        -0.13753
C          8.58145        11.96708         0.13173
C          9.76165         9.78190        -0.16025
C          9.86441        12.65236         0.18094
C          8.73832        14.61817         1.25113
C          8.81748        16.15310         1.36710
C          9.92234        14.01976         0.52376
C         10.02998        16.93312         0.97991
C          8.76735        19.08460         1.20529
C          9.99076        18.41820         0.88561
C         11.09284         1.96177        -0.80344
C         11.06759         3.27024        -1.38965
C         12.33041         1.32898        -0.59916
C         12.28410         4.06296        -1.55513
C         10.93968         6.19975        -1.22710
C         10.98544         7.63687        -0.70865
C         12.14944         5.49499        -1.74906
C         12.16042         8.41620        -1.19220
C         11.05540        10.53343        -0.30781
C         11.05383        11.98940        -0.21443
C         12.18344         9.89978        -1.05938
C         12.42112        12.58270         0.00451
C         11.09459        14.80770        -0.00124
C         11.22410        16.23520         0.45853
C         12.42362        14.08534        -0.05541
C         12.38334        16.91190         0.28128
C         11.14453        19.09684         0.57483
C         12.39390        18.40926         0.09414
C         13.53989         2.03240        -0.78231
C         13.54993         3.41168        -1.22728
C         14.73077         1.36400        -0.38372
C         14.82931         4.07445        -1.06138
C         13.23957         6.37761        -2.01961
C         13.37662         7.68985        -1.59553
C         15.09545         5.40975        -1.54967
C         14.66501         8.46437        -1.35134
C         13.45787        10.64458        -1.23374
C         13.54546        11.93327        -0.79799
C         14.56304         9.89675        -1.99175
C         14.75263        12.72005        -1.04125
C         13.60043        14.76424        -0.19747
C         13.70242        16.17525         0.34061
C         14.79911        14.10011        -0.69455
C         14.90155        16.99582        -0.08610
C         13.67578        19.00420         0.60324
C         14.87166        18.38150         0.43261
C         15.93383         2.05571        -0.16105
C         15.92082         3.46327        -0.42129
C         17.11982         1.43236         0.31434
C         17.05850         4.27281         0.06068
C         16.00439         6.30449        -1.04492
C         15.99636         7.71832        -1.47722
C         17.04360         5.76911        -0.13744
C         17.16676         8.42729        -1.48698
C         15.90834        10.66131        -2.02420
C         15.83688        12.13288        -1.73984
C         17.23858         9.86826        -1.89938
C         16.88353        13.00692        -2.08882
C         15.94811        14.89900        -0.95919
C         15.95312        16.34060        -0.69781
C         17.06981        14.30526        -1.58939
C         17.18867        17.01868        -1.05569
C         16.08194        19.11731         1.03189
C         17.36734        18.78158         0.33030
C         18.33212         2.15060         0.48949
C         18.34659         3.58769         0.31742
C         19.52709         1.49861         0.86001
C         19.53538         4.29771         0.37472
C         18.32295         6.54719        -0.06898
C         18.37598         7.84116        -0.81599
C         19.59336         5.81675         0.40719
C         19.71451         8.39392        -1.21290
C         18.52616        10.57885        -1.61277
C         18.69163        11.90995        -1.94519
C         19.72273         9.89379        -1.17064
C         19.64940        12.78044        -1.28185
C         18.40650        15.01906        -1.85697
C         18.38827        16.40582        -1.25407
C         19.68794        14.25159        -1.47615
C         19.64769        17.23530        -1.14228
C         18.60869        18.72213         0.83782
C         19.80533        18.05208         0.18447
C         20.75504         2.20200         0.93077
C         20.76828         3.60328         0.61023
C         21.96943         1.57088         1.30279
C         22.01159         4.27757         0.48934
C         20.86708         6.34280        -0.24070
C         20.92888         7.69415        -0.70132
C         22.04539         5.62412        -0.03493
C         22.19442         8.34813        -0.90781
C         20.90870        10.56659        -0.98618
C         20.89205        12.02648        -0.79498
C         22.18817         9.84568        -0.62866
C         22.13706        12.80478        -0.75347
C         20.87453        14.92551        -1.25004
C         20.92365        16.38262        -1.17848
C         22.13571        14.20608        -0.95614
C         22.10848        17.03805        -0.97527
C         20.98292        18.98386        -0.03952
C         22.13104        18.45566        -0.59159
C         23.20029         2.25792         1.25998
C         23.22694         3.60905         0.76913
C         24.42586         1.65199         1.67237
C         24.48837         4.25419         0.53909
C         23.31707         6.21385        -0.35859
C         23.34641         7.56009        -0.86272
C         24.52728         5.57759        -0.04752
C         24.63759         8.03809        -1.27676
C         23.41424        10.68854        -0.90693
C         23.35753        12.10865        -0.60571
C         24.63005        10.21503        -1.33883
C         24.56584        12.80515        -0.45941
C         23.37604        14.88281        -0.93938
C         23.41550        16.35494        -1.26708
C         24.59881        14.20668        -0.63573
C         24.59690        17.01632        -0.54841
C         23.36736        19.18442        -0.66011
C         24.60327        18.52395        -0.68864
C         25.64585         2.31325         1.51901
C         25.67140         3.58699         0.87297
C         26.90089         1.74263         2.00020
C         27.00662         4.12798         0.43290
C         25.81037         6.25551        -0.22252
C         25.84813         7.57247        -0.85013
C         26.98025         5.59239         0.07267
C         27.11706         8.33678        -1.28346
C         25.91252        10.70431        -0.88441
C         25.75809        11.99611        -0.03930
C         27.05426         9.93125        -0.83196
C         27.01125        12.80194         0.06964
C         25.86585        14.88726        -0.52936
C         25.93567        16.34392        -0.92622
C         27.03961        14.19113        -0.15856
C         27.10667        17.07245        -0.31630
C         25.82559        19.19506        -0.55472
C         27.05419        18.50349        -0.28524
C         28.05043         2.48171         2.06275
C         28.04109         3.86828         1.52217
C         29.33606         1.95331         2.49676
C         29.26890         4.70827         1.62000
C         28.27270         6.24340        -0.19168
C         28.34519         7.60032        -0.75034
C         29.51093         5.72732         0.54023
C         29.60961         8.10880        -0.90477
C         28.26312        10.60496        -0.23650
C         28.21673        12.04295         0.35735
C         29.61723        10.24268        -0.63862
C         29.48796        12.79567         0.75092
C         28.30086        14.92628         0.04963
C         28.28035        16.38137         0.00440
C         29.47014        14.26610         0.38307
C         29.46148        17.11510         0.35472
C         28.21321        19.21880         0.06131
C         29.41853        18.54625         0.37199
C         30.45533         2.70845         2.58654
C         30.44240         4.22337         2.48250
C         31.75450         4.83969         2.06043
C         30.74326         6.53573         0.57784
C         30.81015         7.68808        -0.20671
C         31.85254         5.97159         1.32303
C         31.98635         8.56059        -0.23959
C         30.80189        10.75917        -0.13080
C         30.79976        12.10788         0.39411
C         31.99414         9.92832        -0.25481
C         31.94828        12.85285         0.57745
C         30.70611        14.98192         0.62458
C         30.68139        16.43907         0.65350
C         31.88702        14.25797         0.78104
C         31.81712        17.20151         0.97623
C         30.59373        19.27488         0.70520
C         31.76774        18.60406         1.00251
O          6.78735        16.37357         2.69321
O          2.38479        10.48000        -1.25512
O          9.58856         4.79065        -2.61089
O          4.70896         4.38995         1.65821
O         28.08931        10.84489         1.21691
O         14.34788         5.80572        -2.66020
O         16.61566         5.21604         1.14010
O         17.89456        12.50744        -2.93388
O         24.62976         9.10055        -2.19002
O         17.16413        18.42582        -1.01427
O          6.74634         8.28989        -2.26065
O         10.68047         9.92637         0.99976
O         11.68612         9.29510        -2.30632
O         29.73602         9.29141        -1.65773
O         28.09840         4.99339         2.47131
O         11.12180         6.52995         0.21124
O          3.74735         5.48835        -1.54259
O         29.21927         5.27157        -0.82682
O         20.15097         7.84736        -2.46744
O         16.65759        10.22308        -3.19734
O          9.80224        16.50856         2.40079
O         18.16801         7.82428         0.65142
O          3.05876        14.94899        -0.90612
O         19.84609        12.44464         0.14288
O          4.52524         9.41996        -2.17328
O         13.93535        15.98274         1.78467
H         13.28322        15.32560         2.11236
O         14.63119         8.74390         0.08879
H         14.85160         7.92000         0.57600
O         27.36300         3.36386        -0.75121
H         28.14079         3.81734        -1.16062
O         14.12840         9.76758        -3.34869
H         14.93467         9.68450        -3.90764
O         24.38134        16.74776         0.86177
H         25.10897        17.16912         1.36567
O          2.54621         7.81478        -1.92117
H          2.96714         7.18314        -2.54436
O         23.59832        16.49459        -2.71601
H         22.78390        16.16771        -3.15393
O         29.46562        12.81566         2.21810
H         29.23831        11.90357         2.50780
O          6.47801         3.58668        -2.31226
H          6.93448         3.91307        -3.11551
O         30.23608         4.70131         3.84017
H         29.26048         4.80943         3.94839
O         18.49222        15.23406        -3.30637
H         18.36852        14.35130        -3.72691
O         19.69019        18.16592        -2.24583
H         19.31675        17.71335        -3.03107
O         15.86668        20.53604         0.99326
H         15.97343        20.83169         0.06562
O         22.19278         9.81695         0.85489
H         22.12706        10.74334         1.17580
O         27.20241         8.33590        -2.70820
H         26.34506         8.67176        -3.05670
O         20.21867        17.06266         1.17513
H         20.56286        17.53575         1.96071
O         10.73350        14.97351        -1.44062
H         11.40371        15.56390        -1.85015
O          7.22163         4.08530         1.20436
H          6.64486         4.08005         2.00253
O         12.40278        18.56809        -1.37883
H         12.52905        19.52174        -1.56979
O         26.19660        16.39713        -2.35451
H         25.33643        16.30911        -2.83248
O         19.73816         6.13184         1.82116
H         19.32789         7.01772         1.95883
O          8.81738        14.10304         2.61637
H          9.34085        14.75791         3.13431
O         12.71145        12.28607         1.42271
H         12.39391        11.37597         1.61749
O         25.43032        11.47436         1.29047
H         26.25581        11.05959         1.64133
O          6.38425        11.18332        -2.26784
H          6.14205        10.38883        -2.80411
H          0.55286         1.51555         1.37680
H          0.40431         3.96730         0.96799
H          2.71903         0.32517         1.31953
H          1.00119         6.00264         2.04673
H          1.09827         8.45949         1.93982
H          0.59252        10.28153         1.50297
H          0.54705        12.71206         1.33714
H          0.27464        14.65423         0.81221
H          0.42131        17.06676         1.18455
H          1.72569        19.14372         1.43884
H          5.12104         0.35007         0.75510
H          3.91548        20.26510         1.78645
H          7.47169         0.29402         0.26747
H          6.37677        20.19967         1.66193
H          9.92124         0.32140         0.01268
H          8.74557        20.18394         1.15492
H         12.35892         0.31114        -0.18370
H         11.12640        20.19842         0.54206
H         14.66853         0.29485        -0.13099
H         13.65929        20.00641         1.06053
H         17.11375         0.34744         0.49510
H         16.15800        18.83330         2.11419
H         19.51125         0.41758         1.06289
H         18.75306        18.99166         1.89677
H         21.95138         0.51617         1.61600
H         20.96444        20.01691         0.34018
H         24.40131         0.64829         2.12284
H         23.34319        20.28017        -0.55102
H         26.89417         0.70562         2.36963
H         25.83793        20.29616        -0.55917
H         29.38893         0.87491         2.71440
H         28.18660        20.31832         0.08794
H         31.39575         2.23815         2.91234
H         32.65941         4.43236         2.53618
H         32.84088         6.43704         1.18872
H         32.96442         8.05887        -0.16226
H         32.97360        10.42571        -0.18458
H         32.93818        12.38425         0.48137
H         32.83620        14.78623         0.94403
H         32.76607        16.70632         1.22209
H         30.55819        20.37348         0.72168
H         32.67353        19.16980         1.26184
