         344
 CSIRO Nanostructure Databank - Neutral Graphene Oxide Data Set
C          1.46395         1.87505        -0.59619
C          1.45309         3.29264        -0.75761
C          2.59956         1.22940        -0.18532
C          2.56256         4.05604        -0.47446
C          1.27751         6.25739        -0.36509
C          1.26349         7.61892        -0.22849
C          2.54461         5.54326        -0.76115
C          2.45978         8.39787        -0.28931
C          1.27356        10.60472        -0.79484
C          1.28009        11.93031        -1.07822
C          2.40672         9.90274        -0.08013
C          2.42125        12.79369        -0.82236
C          1.26158        14.87219        -1.68912
C          1.38033        16.17573        -2.04577
C          2.31811        14.18614        -0.94911
C          2.43310        17.11463        -1.49629
C          2.83955        18.25888        -2.37928
C          3.79454         1.96542         0.11116
C          3.77117         3.41839        -0.00005
C          4.98558         1.29314         0.38369
C          4.91326         4.15868         0.30234
C          3.75539         6.28494        -0.25843
C          3.70822         7.71207        -0.23026
C          4.93203         5.59657         0.12398
C          4.93238         8.44472        -0.10762
C          3.72187        10.57660        -0.37584
C          3.72966        11.99516        -0.88901
C          4.92519         9.87311        -0.31800
C          5.04462        12.67425        -0.61488
C          3.35021        15.10668        -0.48489
C          3.62274        16.36072        -0.93995
C          5.19122        13.98841        -0.27508
C          4.91711        17.09055        -0.54087
C          4.01331        18.89403        -2.16901
C          5.06906        18.39714        -1.30267
C          6.18440         1.99781         0.68905
C          6.05300         3.46456         1.02573
C          7.40445         1.36301         0.82116
C          7.37140         4.19703         0.98630
C          6.11576         6.33526         0.37692
C          6.15539         7.74433         0.11984
C          7.29726         5.66594         0.95040
C          7.38974         8.45091         0.09229
C          6.20649        10.53654        -0.48750
C          6.26609        11.92274        -0.77706
C          7.41923         9.83204        -0.23539
C          7.50608        12.61639        -0.82754
C          6.25685        14.81917        -0.82318
C          6.23474        16.28881        -0.71680
C          7.52241        14.05022        -1.17286
C          7.46177        16.95316        -0.77684
C          6.26258        19.06534        -1.23183
C          7.48034        18.41789        -0.78952
C          8.62989         2.08318         1.05776
C          8.58166         3.54420         1.09999
C          9.83937         1.42636         1.17581
C          9.85192         4.26144         1.24124
C          8.59746         6.40992         0.98199
C          8.69900         7.70580         0.22341
C          9.87038         5.68738         1.12191
C          9.77304         8.57140         0.88732
C          8.65438        10.55992        -0.24676
C          8.69754        11.93141        -0.51795
C          9.89651         9.82718         0.06301
C          9.94229        12.72194        -0.34039
C          8.82325        14.82809        -1.33888
C          8.72493        16.26644        -0.85130
C         10.02439        14.12690        -0.76187
C          9.94491        16.96409        -0.69751
C          8.66606        19.09753        -0.61496
C          9.92496        18.41154        -0.48814
C         11.08034         2.12811         1.42556
C         11.04426         3.56824         1.47818
C         12.26921         1.43576         1.57388
C         12.27133         4.35389         1.91716
C         11.07481         6.43302         1.12177
C         11.09920         7.83117         1.02827
C         12.37855         5.68318         1.15188
C         12.29334         8.59744         1.27041
C         11.19665        10.52747         0.10798
C         11.21163        12.01607        -0.01687
C         12.24570         9.97401         0.98190
C         12.56264        12.65722        -0.25923
C         11.21222        14.84138        -0.59058
C         11.18336        16.27220        -0.68203
C         12.46865        14.17412        -0.24430
C         12.48164        17.03315        -0.77874
C         11.09719        19.09847        -0.22610
C         12.39056        18.46816        -0.28825
C         13.56033         2.10055         1.95463
C         13.56357         3.59506         1.74286
C         14.75918         1.43797         1.34355
C         14.73950         4.28052         1.64078
C         13.54052         6.51601         1.64209
C         13.52446         7.88775         1.69043
C         14.78709         5.74736         2.01654
C         14.81629         8.59570         1.88370
C         13.15798        10.97158         1.46362
C         13.49762        12.13962         0.83692
C         14.92307         9.92781         2.18601
C         14.68207        12.96511         1.32971
C         13.61595        14.88524         0.02212
C         13.67014        16.32046        -0.14757
C         14.88758        14.11565         0.31847
C         14.83770        17.02698         0.05196
C         13.54860        19.15373        -0.06455
C         14.87896        18.49392        -0.32107
C         15.93868         2.14473         1.08270
C         15.98873         3.59230         1.37136
C         17.05196         1.54386         0.47135
C         17.17927         4.28307         1.27851
C         16.04178         6.45634         1.57310
C         16.05987         7.86181         1.62393
C         17.22557         5.73025         1.33147
C         17.30127         8.53968         1.50705
C         16.11640        10.78064         1.99397
C         16.01610        12.17983         1.50031
C         17.39084        10.00189         1.71851
C         17.21733        12.84569         1.25511
C         16.06045        14.97599         0.68947
C         16.05951        16.37016         0.48014
C         17.24552        14.28378         0.99291
C         17.26993        17.10549         0.62982
C         16.07214        19.22356         0.21743
C         17.26419        18.55645         0.49445
C         18.23608         2.38240         0.07782
C         18.45470         3.49443         1.11777
C         19.49099         1.59104        -0.16380
C         19.67256         4.31373         0.77038
C         18.44379         6.42283         1.08832
C         18.47274         7.82810         1.18963
C         19.66917         5.68083         0.78429
C         19.80282         8.55152         1.16023
C         18.54292        10.73349         1.18824
C         18.48440        12.14194         1.18148
C         19.71338        10.02596         0.82325
C         19.70939        12.86696         1.03886
C         18.47357        14.99476         1.01449
C         18.48808        16.41967         0.86876
C         19.69775        14.27311         1.11085
C         19.73703        17.13712         0.87240
C         18.49783        19.25537         0.62216
C         19.72745        18.57101         0.74086
C         20.74277         2.16605        -0.07049
C         20.94514         3.52072         0.60026
C         21.91687         1.47349        -0.46731
C         22.05823         4.30266        -0.04691
C         20.84205         6.44357         0.33843
C         20.84734         7.81012         0.36859
C         22.00600         5.70227        -0.15488
C         21.79601         8.60813        -0.49470
C         20.86642        10.73392         0.44780
C         20.91769        12.16144         0.67663
C         22.03075        10.03596        -0.03658
C         22.10849        12.85047         0.45922
C         20.94945        15.00687         1.21368
C         20.97286        16.45399         0.99021
C         22.25266        14.23082         0.88487
C         22.21447        17.12263         0.84872
C         20.96996        19.25104         0.71134
C         22.19245        18.55178         0.72197
C         23.17767         2.12804        -0.56700
C         23.20352         3.60145        -0.48602
C         24.35078         1.43624        -0.81556
C         24.34588         4.30787        -0.88877
C         23.13744         6.40960        -0.62939
C         23.07606         7.86144        -0.84776
C         24.35228         5.72724        -0.89050
C         24.38903         8.60894        -0.98406
C         23.21038        10.71847        -0.31157
C         23.20587        12.22882        -0.35260
C         24.43298        10.04761        -0.65951
C         24.55112        12.86393        -0.10912
C         23.44360        15.01222         0.51372
C         23.47128        16.41875         0.67365
C         24.59656        14.27059         0.14134
C         24.71373        17.14310         0.47071
C         23.42603        19.24301         0.62436
C         24.68801        18.61928         0.59789
C         25.66183         2.17064        -0.82740
C         25.50440         3.54388        -1.47920
C         26.82266         1.43354        -1.46002
C         26.82058         4.28288        -1.40703
C         25.59855         6.45595        -1.01430
C         25.64632         7.83852        -0.94912
C         26.87250         5.66615        -0.83079
C         26.89719         8.56364        -0.91198
C         25.67283        10.70198        -0.61267
C         25.72197        12.13241        -0.35142
C         26.91116         9.96732        -0.77887
C         26.99027        12.79969        -0.29408
C         25.83479        14.96333         0.04882
C         25.86375        16.40030         0.13106
C         27.01827        14.18767        -0.11211
C         27.07943        17.00183        -0.52042
C         25.75778        19.56505         0.65878
C         27.16828        19.46861         0.84828
C         27.93148         2.13192        -1.85053
C         27.97193         3.59281        -1.67270
C         29.14457         1.47624        -2.30442
C         29.24086         4.29307        -1.76874
C         28.11376         6.43029        -1.20741
C         28.12844         7.82804        -1.10355
C         29.29251         5.70860        -1.55934
C         29.37229         8.54073        -1.22179
C         28.17724        10.67230        -0.74533
C         28.22338        12.05609        -0.48648
C         29.40349         9.95279        -0.99625
C         29.49268        12.74491        -0.43602
C         28.29954        14.87649         0.21860
C         28.41707        16.25749        -0.42030
C         29.55784        14.12031        -0.10474
C         29.51986        16.91180         0.38748
C         27.83640        18.35773         1.33282
C         29.27045        18.05698         1.16202
C         30.30759         2.16604        -2.44069
C         30.39151         3.58745        -2.16485
C         31.61235         4.29180        -2.32211
C         30.52675         6.40244        -1.73739
C         30.56880         7.82818        -1.51338
C         31.67667         5.65641        -2.11079
C         31.78948         8.55314        -1.57465
C         30.64976        10.63926        -1.01976
C         30.70588        12.05065        -0.71410
C         31.82790         9.90636        -1.32573
C         31.92592        12.77186        -0.65505
C         30.77518        14.82235        -0.03760
C         30.75248        16.22805         0.43227
C         31.96608        14.11661        -0.32115
C         31.82336        16.86143         1.08608
C         30.35893        18.68250         1.79501
C         31.62886        18.10328         1.70439
O          6.56463        14.36882        -2.22959
O          4.21656        14.59721         0.50802
O         13.82106        10.64026         2.66330
O         21.83329        14.51032         2.26158
O         10.83882         9.71763        -1.06944
O         17.08269        10.49952         3.08030
O         10.46516        12.60694         1.08138
O         26.93965        17.84614        -1.40657
O         23.56087         8.28080        -2.17467
O          7.76835         6.39896         2.18213
O          3.79368        11.80610        -2.37345
H          4.69322        11.47460        -2.58837
O          9.31879         8.97139         2.19601
H          8.98205         8.17592         2.66478
O         27.90751        20.55835         0.48737
H         27.33329        21.22250         0.05885
O         20.28573         8.53610         2.55303
H         19.63172         9.02545         3.09778
O         13.66512         1.95899         3.43891
H         14.52830         2.34853         3.69963
O         15.06615        18.53904        -1.80679
H         15.96325        18.18702        -1.99365
O          9.05828        14.93074        -2.78031
H          8.17136        15.05100        -3.19297
O         14.35694        13.54476         2.60645
H         14.13065        12.80799         3.21549
O          2.61025         5.64017        -2.24025
H          2.60820         6.59527        -2.46564
O         28.24736        15.09956         1.66563
H         28.23057        14.22261         2.10332
O          2.13727        10.09363         1.36173
H          2.84027         9.61925         1.85502
O         26.02798         2.45005         0.56954
H         26.07432         1.59583         1.04821
O         26.96851         5.42564         0.63196
H         26.57435         4.53955         0.81353
O          9.14554         7.33596        -1.10693
H          9.55917         8.12101        -1.53063
O         21.05233         8.77120        -1.74918
H         21.73307         8.87050        -2.45630
O         12.76488        17.09320        -2.21420
H         13.56260        17.67349        -2.32432
O          1.79579        17.75747        -0.33158
H          1.60088        17.05613         0.32549
O         22.89194        12.55980        -1.76566
H         23.55973        12.10621        -2.32389
O         12.68657         5.31646        -0.22820
H         12.63170         6.12702        -0.77716
O         15.29686        13.46292        -0.93756
H         15.52461        14.17156        -1.57635
O         18.71826         2.82038         2.39323
H         18.59388         3.48097         3.10744
O         12.08590         4.64758         3.32533
H         12.32828         3.83637         3.82436
O         14.85090         5.72791         3.48899
H         14.73315         6.65104         3.80015
O         17.90386         3.06833        -1.17827
H         17.69911         2.38458        -1.84972
O         21.40886         3.20141         1.95407
H         20.64091         2.77155         2.40418
O          4.82873        17.41789         0.87385
H          4.65687        16.57520         1.34921
O         25.19122         3.32089        -2.88226
H         25.06065         4.19451        -3.30635
O         12.99974        12.21670        -1.56158
H         13.92786        12.54305        -1.67398
O          5.64608         3.50254         2.44630
H          6.37752         3.11016         2.96944
O         28.86094        16.10076        -1.78436
H         28.52593        16.88767        -2.27337
H          0.55298         1.30494        -0.82624
H          0.53612         3.76980        -1.13101
H          2.61565         0.13445        -0.08456
H          0.33520         5.69403        -0.30445
H          0.30936         8.13111        -0.03415
H          0.35708        10.02716        -0.99032
H          0.35695        12.37984        -1.47616
H          0.42229        14.28638        -2.09211
H          0.59680        16.62518        -2.67599
H          2.11165        18.65914        -3.10075
H          5.01685         0.19563         0.30211
H          4.25144        19.79517        -2.75731
H          7.46015         0.26968         0.70114
H          6.35201        20.06733        -1.68173
H          9.86585         0.32753         1.11794
H          8.66919        20.19809        -0.61808
H         12.26287         0.33711         1.50078
H         11.05492        20.17819        -0.01380
H         14.71446         0.36084         1.12019
H         13.52556        20.21648         0.22164
H         17.00713         0.48376         0.17657
H         16.08503        20.31983         0.11612
H         19.39552         0.57928        -0.59329
H         18.50046        20.35157         0.52901
H         21.84588         0.40968        -0.74418
H         20.98119        20.34765         0.62281
H         24.33695         0.33746        -0.89406
H         23.38856        20.34352         0.62456
H         26.82073         0.33232        -1.48453
H         25.41940        20.60443         0.49361
H         29.11211         0.39454        -2.50228
H         27.23179        17.53859         1.75285
H         31.22287         1.64868        -2.76523
H         32.51392         3.74123        -2.62777
H         32.63976         6.16500        -2.25169
H         32.72846         8.03246        -1.80416
H         32.79690        10.42055        -1.36840
H         32.87438        12.26029        -0.86712
H         32.93385        14.63671        -0.28318
H         32.80750        16.37420         1.14228
H         30.20865        19.59529         2.38730
H         32.47916        18.59282         2.20086
