         404
 CSIRO Nanostructure Databank - Neutral Graphene Oxide Data Set
C          1.40805         2.23510         0.32974
C          1.39486         3.63142         0.22480
C          2.54369         1.51323        -0.01044
C          2.52042         4.33025        -0.25009
C          1.41331         6.59814        -0.12011
C          1.38180         7.95817        -0.42102
C          2.49823         5.76356        -0.48528
C          2.35394         8.52368        -1.28333
C          1.27118        10.72446        -1.52354
C          1.26693        12.15043        -1.50618
C          2.41348         9.95563        -1.63977
C          2.43173        12.88343        -1.44578
C          1.32013        15.12713        -1.65200
C          1.38739        16.50905        -1.65615
C          2.46816        14.34573        -1.36435
C          2.59456        17.18348        -1.35491
C          2.67036        18.61545        -1.40517
C          3.71647         2.18195        -0.44700
C          3.69958         3.60693        -0.59200
C          4.90572         1.45399        -0.71115
C          4.89914         4.29325        -0.99182
C          3.58923         6.34837        -1.19357
C          3.33408         7.62702        -1.73629
C          4.88023         5.68780        -1.30985
C          5.18713         8.63287        -2.13479
C          3.70334        10.65307        -1.92534
C          3.71369        12.17821        -1.65549
C          5.03134         9.98233        -1.83655
C          4.95127        12.81150        -1.11993
C          3.67408        15.00880        -1.05408
C          3.75075        16.42438        -1.01148
C          4.84653        14.21607        -0.62099
C          4.98165        17.11006        -0.68312
C          3.85049        19.26252        -1.17020
C          5.03742        18.53173        -0.81810
C          6.11577         2.11857        -0.95586
C          6.11581         3.55493        -1.04419
C          7.34464         1.40695        -1.08080
C          7.35227         4.25721        -1.06059
C          6.14249         6.39125        -1.48325
C          6.26436         7.80331        -1.71600
C          7.34999         5.66362        -1.17409
C          7.55891         8.51651        -1.60389
C          6.25700        10.77227        -1.63464
C          6.14511        12.15519        -1.11596
C          7.56172        10.02251        -1.55225
C          7.40864        12.88168        -0.81838
C          6.07218        14.93928        -0.12391
C          6.15135        16.41940        -0.27052
C          7.35956        14.13025         0.04309
C          7.37090        17.10079        -0.03001
C          6.25871        19.19680        -0.63753
C          7.44422        18.53036        -0.25905
C          8.58310         2.06277        -1.13180
C          8.60095         3.52044        -1.02061
C          9.80070         1.33265        -1.07201
C          9.82123         4.18322        -0.92878
C          8.57819         6.36684        -0.74653
C          8.76367         7.79462        -1.10221
C          9.86612         5.58966        -0.49550
C          9.97717         8.51596        -0.64332
C          8.62778        10.62657        -0.63122
C          8.70144        12.13828        -0.77741
C          9.97115         9.91533        -0.62991
C          9.90101        12.83970        -0.28906
C          8.63215        14.92898        -0.04820
C          8.57852        16.30654         0.20398
C          9.88028        14.21727        -0.02871
C          9.77608        16.89237         0.69388
C          8.65743        19.31313        -0.29931
C          9.83542        18.97693         0.37527
C         11.05260         1.99582        -0.99887
C         11.03757         3.44721        -1.30648
C         12.24397         1.38003        -0.61885
C         12.33463         4.29563         0.54394
C         11.13608         6.35262        -0.25986
C         11.16075         7.78161        -0.34127
C         12.30347         5.68326         0.15600
C         12.36758         8.50346        -0.04458
C         11.16397        10.62124        -0.33542
C         11.16133        12.09896        -0.39861
C         12.37023         9.93391        -0.06620
C         12.44255        12.84237        -0.07614
C         11.11736        14.92851         0.24207
C         11.06502        16.32095         0.56455
C         12.34919        14.25743         0.31387
C         12.26474        17.09051         0.73871
C         11.17692        19.34428         0.17682
C         12.29194        18.54519         0.60998
C         13.48246         2.04131        -0.12862
C         13.53999         3.47529         0.39259
C         14.80627         1.40724        -0.57341
C         14.81246         4.22496         0.35078
C         13.55965         6.37724         0.27275
C         13.57608         7.79289         0.23351
C         14.77947         5.64370         0.44832
C         14.80153         8.50293         0.49228
C         13.59141        10.65555         0.26126
C         13.61529        12.06254         0.33906
C         14.79389         9.93291         0.54338
C         14.77271        12.77780         0.75686
C         13.52465        14.94576         0.70380
C         13.49663        16.37302         0.84349
C         14.74869        14.21142         0.87041
C         14.73801        17.06164         1.03121
C         13.53934        19.18889         0.70331
C         14.74944        18.50061         0.96869
C         16.06786         2.12103        -0.12112
C         16.02888         3.53254         0.22555
C         17.27117         1.45667        -0.19990
C         17.23435         4.24286         0.47643
C         16.00085         6.35298         0.64048
C         16.00597         7.79040         0.70923
C         17.20332         5.61888         0.75510
C         17.23431         8.50311         0.92421
C         15.98989        10.63753         0.86231
C         15.97985        12.06052         0.99603
C         17.21655         9.91874         1.02709
C         17.17397        12.76728         1.34753
C         15.94444        14.90403         1.19431
C         15.94440        16.34825         1.23207
C         17.13732        14.17481         1.45568
C         17.17341        17.06337         1.40562
C         15.96618        19.19235         1.10093
C         17.18240        18.50082         1.31672
C         18.53809         2.10141         0.03058
C         18.55612         3.60419         0.15200
C         19.74291         1.43983        -0.07197
C         19.70628         4.11485         1.00203
C         18.43060         6.33196         1.17410
C         18.47095         7.79899         1.07209
C         19.72269         5.57934         1.31526
C         19.69321         8.46755         1.21078
C         18.43511        10.62187         1.28553
C         18.41922        12.03808         1.47925
C         19.67069         9.90651         1.31083
C         19.63631        12.71502         1.73146
C         18.33312        14.91700         1.89481
C         18.38602        16.37494         1.66552
C         19.64212        14.15873         2.05434
C         19.61380        17.06233         1.74166
C         18.40620        19.19065         1.43778
C         19.62406        18.49931         1.61557
C         21.00626         2.09933         0.16308
C         21.00430         3.40729         0.85524
C         22.21920         1.52681        -0.12718
C         22.26849         4.16849         0.96961
C         20.99779         6.31804         1.22607
C         20.96331         7.73203         1.24296
C         22.23276         5.60461         1.13345
C         22.19305         8.44722         1.20788
C         20.88017        10.62968         1.44159
C         20.86111        12.01636         1.67026
C         22.15099         9.91901         1.16756
C         22.11880        12.74761         1.97293
C         20.90426        14.92303         1.96982
C         20.87103        16.36119         1.89284
C         22.12783        14.22640         1.94586
C         22.07767        17.08313         1.88484
C         20.85242        19.19758         1.65564
C         22.08245        18.51358         1.77050
C         23.48330         2.11455         0.25760
C         23.47808         3.47466         0.83138
C         24.61715         1.39447        -0.13313
C         24.69376         4.23018         1.05500
C         23.45527         6.34964         1.14497
C         23.43812         7.77962         1.20583
C         24.70028         5.65394         1.12909
C         24.70005         8.50528         1.28294
C         23.44477        10.65657         1.26397
C         23.43489        12.03905         1.82277
C         24.71525         9.91146         1.34508
C         24.66347        12.82174         1.63230
C         23.36820        14.90897         1.87658
C         23.38158        16.38696         2.18796
C         24.58917        14.21701         1.68254
C         24.59350        17.12736         1.67760
C         23.31026        19.22453         1.71756
C         24.56051        18.55571         1.60934
C         25.93535         1.65774         0.35881
C         25.92802         3.57995         1.22883
C         27.18278         1.47831        -0.20152
C         27.17839         4.21812         1.08255
C         25.95151         6.35137         1.27433
C         25.95160         7.80466         1.36065
C         27.16509         5.63869         1.22986
C         27.15569         8.53473         1.45235
C         25.91902        10.65933         1.39881
C         25.90631        12.10172         1.44931
C         27.16915         9.96595         1.42656
C         27.12498        12.79871         1.44353
C         25.80557        14.95470         1.17808
C         25.79062        16.45094         1.42245
C         27.09631        14.29081         1.69233
C         26.97600        17.18279         1.21210
C         25.75164        19.27463         1.33416
C         26.97971        18.60933         1.15343
C         28.37918         2.14909         0.28261
C         28.37434         3.45790         0.85901
C         29.61381         1.52977        -0.06908
C         29.66169         4.15480         1.09572
C         28.44492         6.31800         1.48733
C         28.44310         7.82425         1.61726
C         29.70618         5.63368         1.16335
C         29.71443         8.52480         1.36987
C         28.38985        10.70044         1.45555
C         28.37873        12.11415         1.42656
C         29.69377         9.99017         1.74227
C         29.63228        12.86053         1.38382
C         28.32854        14.97971         1.13971
C         28.24805        16.46551         0.99396
C         29.63285        14.27302         1.26885
C         29.49749        17.26897         1.04535
C         28.18574        19.32865         0.81279
C         29.42836        18.70656         0.66683
C         30.87286         2.11574         0.12101
C         30.95257         3.45034         0.74993
C         32.07132         1.49562        -0.26499
C         32.16261         4.26056         0.53173
C         30.88937         6.34873         1.03683
C         30.88964         7.81390         1.14282
C         32.14485         5.66276         0.74864
C         32.15154         8.51568         0.99452
C         30.90938        10.75822         1.29287
C         30.88501        12.13644         1.29455
C         32.17612         9.98166         1.18156
C         32.19383        12.92583         1.30669
C         30.80417        15.01073         0.97731
C         30.76859        16.49911         0.90112
C         32.05195        14.35706         0.81710
C         31.82575        17.21549         0.13861
C         30.62364        19.37944         0.30171
C         31.84273        18.69239         0.05635
C         33.31890         2.16617        -0.15062
C         33.34599         3.58201         0.17324
C         34.52642         1.49948        -0.40196
C         34.57922         4.28727         0.15954
C         33.35734         6.39321         0.61680
C         33.35077         7.83540         0.73492
C         34.58153         5.69803         0.37252
C         34.59388         8.55070         0.49047
C         33.40951        10.72971         0.70547
C         33.25340        12.19219         0.50543
C         34.59247         9.93899         0.27170
C         34.11842        12.94430        -0.22557
C         33.16689        15.05305         0.34473
C         33.11292        16.45042        -0.08507
C         34.37153        14.35952        -0.02507
C         34.33140        17.18118        -0.34466
C         33.00594        19.27882        -0.46001
C         34.22233        18.54345        -0.69650
C         35.77565         2.16598        -0.31580
C         35.80583         3.58154        -0.04638
C         36.98717         1.46989        -0.50860
C         37.04400         4.26227         0.02840
C         35.82845         6.39819         0.33761
C         35.83860         7.82273         0.38871
C         37.06365         5.69413         0.21557
C         37.08182         8.50123         0.34839
C         35.84625        10.57964        -0.00784
C         35.94009        11.91432        -0.47123
C         37.08014         9.91795         0.21781
C         36.98645        12.77020        -0.13672
C         35.59389        14.98141        -0.24052
C         35.68007        16.51181        -0.15402
C         36.90915        14.26118        -0.27731
C         36.68976        17.04823        -1.17069
C         35.34177        19.14506        -1.34215
C         36.46378        18.37915        -1.72763
C         38.22602         2.13033        -0.42646
C         38.26219         3.53671        -0.14888
C         39.46134         1.43378        -0.62115
C         39.51633         4.19771        -0.05521
C         38.29936         6.38958         0.27878
C         38.34552         7.81139         0.33631
C         39.55099         5.62223         0.30414
C         39.57048         8.53505         0.17751
C         38.26692        10.69135         0.26401
C         38.13912        12.08127         0.33353
C         39.64268        10.05789         0.28139
C         39.71199        13.04766        -0.74975
C         38.13715        15.02441        -0.86470
C         37.83131        16.34464        -1.48245
C         39.27619        14.21650        -1.40137
C         38.78267        16.88109        -2.47690
C         37.33760        18.87490        -2.71898
C         38.41680        18.11001        -3.20319
C         40.66023         2.10281        -0.58896
C         40.71212         3.50585        -0.32431
C         41.94411         4.23834        -0.49484
C         40.88227         6.38965         0.10315
C         40.78115         7.85318        -0.12233
C         42.00706         5.59495        -0.41029
C         41.83703         8.56005        -0.71971
C         40.58771        10.66678        -0.78552
C         40.43274        12.00476        -1.38045
C         41.68319         9.90043        -1.14145
C         40.92875        12.30168        -2.66947
C         39.86860        14.51080        -2.65630
C         39.76825        15.90300        -3.17743
C         40.70722        13.55136        -3.25193
C         40.17685        16.26295        -4.52781
C         39.13618        18.46798        -4.35341
C         39.96294        17.53329        -5.01706
O         30.38035        17.07068         2.19989
O         34.87594        12.36077        -1.25119
O         20.18081         3.30748         2.10518
O         30.47931         3.50052         2.14012
O         18.82106        14.50889         3.22434
O          3.74852        11.63057        -3.01628
O         22.79567        10.51553        -0.04611
O         37.90105        14.95154         0.56407
O         40.19223        16.83745        -2.12148
O         13.47511         2.32116         1.32561
O         22.81772        12.16771         3.14749
O         39.30676        12.82506         0.58369
O         18.92438         5.88718         2.50664
O          9.65501        18.04464         1.44178
O          8.94346         5.94475         0.60184
O          8.27010        12.85358        -2.00155
O         40.42915         5.96171         1.42246
O          4.12823         8.01678        -2.81134
O         28.20219        15.57780        -0.20717
O          8.56343         7.98175        -2.55489
O          8.15664        10.38981         0.68440
O         12.03663        12.61999        -1.47331
O          5.06949        14.43403         0.83348
O         32.07228        16.60945        -1.15236
O         25.92985         2.25269         1.64320
O          7.21864        10.65884        -2.79026
O         28.47591         6.96556         2.81519
O         18.69475         4.15436        -1.15880
O         12.02526         4.00628        -1.81482
O         33.18858        10.42432         2.16331
O         32.59702        13.02520         2.69763
H         32.83412        12.10825         2.98110
O         14.81520         1.31236        -2.00477
H         15.03642         2.18925        -2.38098
O          7.40126        13.64965         1.41655
H          6.46781        13.62348         1.73901
O         29.77494         9.97629         3.21728
H         30.56587         9.45267         3.46911
O         27.11499        14.48812         3.12915
H         27.83271        13.94209         3.51365
O         25.71083        14.77417        -0.25882
H         26.54144        15.13827        -0.65786
O         23.50941        16.45619         3.66311
H         22.79142        15.90859         4.04793
O         36.12912        16.89221         1.17687
H         36.96371        16.39020         1.34625
O         11.36332         3.76710         1.24268
H         11.67017         2.86726         1.54076
O         40.26940        10.35735         1.56399
H         40.26332        11.33749         1.65759
H          0.50984         1.71049         0.68395
H          0.48137         4.17769         0.49594
H          2.55405         0.41784         0.08214
H          0.59045         6.17765         0.47383
H          0.56727         8.57888        -0.02227
H          0.30711        10.21847        -1.36984
H          0.29416        12.65379        -1.41681
H          0.37095        14.63280        -1.89928
H          0.49431        17.10003        -1.90567
H          1.76502        19.18253        -1.66611
H          4.89285         0.35678        -0.63166
H          3.91080        20.35812        -1.24220
H          7.32099         0.30717        -1.06276
H          6.29529        20.28460        -0.79833
H          9.75945         0.23968        -0.95477
H          8.64902        20.21279        -0.93259
H         12.25433         0.28115        -0.53145
H         11.40379        20.27875        -0.35762
H         14.81471         0.35377        -0.18700
H         13.57874        20.28125         0.57818
H         17.27267         0.38880        -0.47244
H         15.97642        20.28989         1.02876
H         19.76161         0.37142        -0.34141
H         18.41594        20.28823         1.36681
H         22.24778         0.54483        -0.62347
H         20.85067        20.29336         1.55924
H         24.47383         0.55362        -0.82966
H         23.28363        20.32200         1.64451
H         27.29091         0.83876        -1.09009
H         25.71000        20.37089         1.25415
H         29.57137         0.53880        -0.54613
H         28.10698        20.41435         0.65032
H         32.04975         0.46530        -0.65076
H         30.58269        20.46327         0.11546
H         34.50938         0.42641        -0.64444
H         33.01744        20.36128        -0.65607
H         36.96106         0.39118        -0.72302
H         35.25700        20.17961        -1.70649
H         39.43361         0.35292        -0.82102
H         37.11386        19.84339        -3.19118
H         41.60039         1.56391        -0.77593
H         42.82934         3.67575        -0.82743
H         42.93070         6.10717        -0.71520
H         42.77194         8.04320        -0.97366
H         42.47312        10.33468        -1.77210
H         41.50891        11.55051        -3.22303
H         41.17716        13.77130        -4.22022
H         40.63811        15.50134        -5.17184
H         38.92046        19.43031        -4.83924
H         40.35798        17.79733        -6.00853
