         276
 CSIRO Nanostructure Databank - Neutral Graphene Oxide Data Set
C        -11.04286         0.55986         1.09498
C         -9.77612         1.31302         1.07356
C         -8.60020         0.70377         0.43819
C         -7.58872         1.55419        -0.22647
C         -6.32364         0.85498        -0.70191
C         -5.02656         1.55998        -0.46381
C         -3.76099         0.77308        -0.41513
C         -2.58232         1.44321        -0.40630
C         -1.32618         0.69976        -0.68510
C         -0.10957         1.40995        -1.16558
C          1.20391         0.65943        -1.30560
C          2.49839         1.45636        -1.33119
C          3.83194         0.72709        -1.15582
C          5.16020         1.48074        -1.03298
C          6.42315         0.72303        -0.63480
C          7.65246         1.47108        -0.24383
C          8.89922         0.73005         0.20191
C          9.96523         1.57863         0.86177
C         11.12148         0.81064         1.32753
C         -9.72940         2.64313         1.40130
C         -8.42236         3.40670         1.38486
C         -7.53422         2.98642         0.21416
C         -6.23574         3.77297         0.05520
C         -5.00032         2.86301         0.34240
C         -3.71725         3.65963         0.03481
C         -2.60809         2.91660        -0.64712
C         -1.35610         3.66131        -1.00180
C         -0.08951         2.86753        -0.83261
C          1.21016         3.54333        -0.61449
C          2.48740         2.87682        -0.94853
C          3.71427         3.36263        -0.17918
C          5.03132         2.95974        -0.83407
C          6.02961         3.87808        -0.99506
C          7.86523         2.78538        -0.52940
C          8.58759         3.61273         0.50202
C          9.89972         2.93889         0.85788
C         -8.52817         4.91613         1.48804
C         -7.46399         5.73586         1.27135
C         -6.12045         5.06512         0.93449
C         -4.99511         5.87185         0.29053
C         -3.71781         5.15720         0.00617
C         -2.61419         5.92347        -0.71292
C         -1.33693         5.19653        -1.01170
C         -0.03833         5.91971        -0.70246
C          1.16669         5.04354        -0.46500
C          2.50506         5.66417        -0.44786
C          3.72180         4.88159        -0.15227
C          4.94296         5.55415         0.47917
C          6.09328         5.36003        -0.60369
C          7.43663         5.85582        -0.05296
C          8.53878         5.11092         0.27440
C         -7.42807         7.11446         1.82891
C         -6.67744         8.10544         1.27782
C         -5.02763         7.19695         0.05304
C         -3.82700         8.06398        -0.04697
C         -2.56473         7.41320        -0.48599
C         -1.25454         8.17820        -0.47542
C          0.06063         7.46563        -0.83640
C          1.58164         7.97101        -1.02116
C          2.54322         7.11148        -0.25506
C          3.57556         7.75412         0.32167
C          4.64022         6.97090         1.01133
C          6.61674         8.33360        -0.03504
C          7.46012         7.28924         0.28124
C         -6.16265         9.38781         1.78310
C         -4.92477         9.87930         1.51484
C         -3.67488         9.14285         1.02663
C         -2.49006        10.03423         0.68902
C         -1.37186         9.57369         0.08185
C         -0.13840        10.33444        -0.26330
C          1.03972         9.90283         0.29776
C          2.11017         9.43940        -0.64192
C          3.56679         9.22064        -0.11045
C          4.58043         9.20556        -1.26361
C          5.80613         8.63470        -1.23479
C        -11.29361        -0.76795         0.86333
C        -10.26872        -1.79998         0.78956
C         -8.44189        -0.64145         0.41568
C         -7.54465        -1.42918        -0.44516
C         -6.34458        -0.66341        -1.05526
C         -5.01195        -1.44172        -0.82097
C         -3.87666        -0.70461        -0.11834
C         -2.52905        -1.44324        -0.08968
C         -1.23253        -0.70207        -0.19093
C          0.14254        -1.39074        -0.12816
C          1.22741        -0.82680        -1.07283
C          2.57867        -1.57678        -1.09404
C          3.73579        -0.68090        -0.62060
C          4.93339        -1.30864         0.02884
C          6.21882        -0.51401         0.27835
C          7.48627        -1.36845         0.34397
C          8.64909        -0.59048         0.89071
C          9.82225        -1.31161         1.46761
C         11.08505        -0.52873         1.54117
C        -10.17709        -3.02971         0.19880
C         -8.87177        -3.71623         0.11014
C         -7.61822        -2.93416        -0.27235
C         -6.26635        -3.56880         0.08354
C         -5.02481        -2.92046        -0.53937
C         -3.71951        -3.59698        -0.27747
C         -2.51413        -2.91363        -0.29023
C         -1.27483        -3.60776        -0.44902
C         -0.00344        -2.91819        -0.14969
C          1.29144        -3.66741        -0.21586
C          2.52804        -2.85627        -0.27998
C          3.80967        -3.57985        -0.26500
C          4.96185        -2.80170         0.30431
C          6.19099        -3.54292         0.72538
C          7.49985        -2.83994         0.55675
C          8.74146        -3.52247         1.02465
C          9.81710        -2.80113         1.42347
C         -8.82300        -5.07045        -0.06923
C         -7.54823        -5.84667        -0.03671
C         -6.26619        -5.09564         0.08915
C         -4.95052        -5.82120         0.02182
C         -3.66230        -5.06097        -0.18997
C         -2.42353        -5.76043        -0.57510
C         -1.26009        -5.00993        -0.71597
C          0.00577        -5.79431        -1.06850
C          1.34597        -4.96240        -1.02239
C          2.59526        -5.80402        -0.72380
C          3.89934        -5.05376        -0.49302
C          5.18313        -5.81031        -0.08894
C          6.15647        -5.07020         0.90900
C          7.50380        -5.77952         0.77576
C          8.82901        -5.02367         0.76842
C         -7.49625        -7.27400        -0.56333
C         -6.12969        -7.94646        -0.47602
C         -4.96137        -7.27413        -0.23827
C         -3.62010        -7.97013        -0.06370
C         -2.50718        -7.25933        -0.89929
C         -1.13632        -8.03946        -0.77488
C         -0.09970        -7.09042        -0.12479
C          1.23561        -7.80495         0.29996
C          2.50821        -7.23948        -0.35473
C          3.70849        -7.91740         0.24377
C          4.95503        -7.17453         0.54878
C          6.21877        -7.91956         1.01100
C          7.48468        -7.13069         0.71271
C         -6.08946        -9.38057        -0.68346
C         -4.91869       -10.08686        -0.64281
C         -3.65863        -9.44578        -0.38734
C         -2.47189       -10.11947        -0.22567
C         -1.23213        -9.38957        -0.07001
C         -0.06494       -10.00130         0.31480
C          1.22482        -9.34228         0.23367
C          2.39764       -10.04494         0.29331
C          3.73115        -9.40236        -0.04205
C          5.01906       -10.06222         0.39911
C          6.16258        -9.38877         0.62649
O          7.70186        -2.23815        -0.80181
O          5.12115         7.31903         2.08662
O          1.42197        -7.59462         1.67413
O         -3.41180         8.23348        -1.41365
O         -6.93827        -5.65478         1.28821
O          6.04204         0.84250        -2.02688
O          0.37011         5.53027         0.65725
O          4.19847        -4.14458        -1.61553
O          8.77264        -0.69007         2.32645
O         -2.20224         5.64125        -2.08372
O         -3.19111         4.41145         1.17997
O         -1.84168        -0.94736         1.11838
O          0.45039         2.94309         0.53631
O         -4.14000        -5.46456         1.19230
O         -8.14999         2.63352        -1.05482
O         -4.84561        -2.38637        -1.90756
O         -8.01124        -2.31862        -1.52908
O         -9.07919        -1.37986         1.41920
O          3.41723         5.29597        -1.54321
O          3.84230        -0.71341         0.82947
O          7.21710         3.43630        -1.59070
O          3.92466        -7.34558         1.56642
O          0.57243        -3.60413         1.04701
O          0.97007        -0.31766        -2.39130
O         -6.23945         7.87481        -0.03885
O          5.28561        -2.94873         1.72121
O         -0.73246         8.06509        -1.86813
O          2.62538        -6.88786        -1.74378
O         -5.65871         1.61205        -1.77481
O         -1.06656         0.90782        -2.12619
O         -2.26874         3.20264        -2.03560
O          3.30601         0.98492        -2.48161
O         -3.27200         8.34322         2.19179
H         -3.06637         8.95732         2.92799
O         -0.69051        -8.44219        -2.08783
H         -1.32191        -9.11236        -2.42417
O          2.85584        -1.96771        -2.45367
H          2.39843        -1.31480        -3.04019
O         -4.96796         2.42443         1.71276
H         -5.89083         2.39448         2.07239
O          3.87491        10.14136         0.92495
H          4.84526        10.08088         1.09848
O          6.12256         0.07507         1.59266
H          5.16990         0.10773         1.84498
O         -6.10265        -3.17166         1.47595
H         -6.46457        -3.89963         2.03392
O          6.65078         9.42686         0.80320
H          7.19446         9.21918         1.59085
O          7.75969         3.42951         1.72014
H          8.30091         3.70256         2.49093
O         -0.71400        -6.63414         1.08417
H         -0.07541        -6.88606         1.81930
O         -3.24064        -7.93341         1.32535
H         -3.27928        -6.99817         1.64130
O          3.78527        -9.46532        -1.51011
H          3.89538       -10.40432        -1.76798
O         -6.57407        -0.68287        -2.47010
H         -6.01973         0.02085        -2.87502
O          0.70902        -1.01680         1.14160
H          0.18094        -1.44484         1.85080
O          1.81605         7.74972        -2.41196
H          1.00525         8.02439        -2.89780
O         -5.64571         4.76660         2.27483
H         -4.68038         4.52979         2.22235
O          5.69280        -5.33846         2.24030
H          5.19477        -4.55146         2.56304
O          5.84870         6.16838        -1.75519
H          4.98207         5.91175        -2.15295
O         -4.38106        -0.72246         1.25133
H         -3.62843        -0.49351         1.84450
O          6.21236        -7.99755         2.46517
H          5.29338        -7.78622         2.75671
O         -0.18075        -6.15272        -2.43770
H          0.68983        -6.44533        -2.79289
O          1.51957        -4.47895        -2.37580
H          2.41010        -4.04897        -2.44587
O          3.63124         2.77841         1.13414
H          4.32359         3.21139         1.69050
O          9.47204        -5.19824        -0.50858
H          8.90070        -4.79789        -1.19659
O          5.89979        -6.06687        -1.31253
H          5.58832        -5.42092        -1.98719
O          5.33121         4.79675         1.63501
H          5.59393         5.45118         2.32708
O         -7.66149         2.96293         2.57303
H         -7.12568         3.73344         2.89193
O          9.50977         0.33588        -1.07850
H          8.85978        -0.20879        -1.57457
O         -6.13503         4.23115        -1.29590
H         -6.63906         3.59772        -1.86224
O          1.13758         9.53113         1.59222
H          2.08533         9.42649         1.82794
O         -2.92006        -7.27526        -2.27878
H         -2.12946        -6.99292        -2.80130
O         -7.90943        -7.22052        -1.93384
H         -7.78771        -8.10627        -2.33266
H         11.99946        -1.05551         1.85484
H         12.06341         1.35638         1.49429
H         10.71595         3.53602         1.29807
H          9.40586         5.67334         0.66348
H          8.11881         7.51279         1.14111
H          6.34379         8.54005        -2.19302
H          4.17593         9.47034        -2.25430
H          2.10896        10.06524        -1.55829
H         -0.06760        10.50748        -1.35385
H         -2.50898        11.07339         1.05263
H         -4.70444        10.88003         1.92738
H         -6.84892        10.02339         2.36858
H         -7.90175         7.26485         2.81183
H         -9.46378         5.33561         1.89170
H        -10.62708         3.14956         1.78926
H        -11.93249         1.20001         1.22403
H        -12.34611        -1.07921         0.76657
H        -11.05846        -3.52760        -0.23153
H         -9.75508        -5.65511        -0.02485
H         -8.23174        -7.90570         0.01856
H         -7.03954        -9.90518        -0.86545
H         -4.92977       -11.17571        -0.80214
H         -2.44522       -11.22129        -0.23954
H         -0.09023       -11.04842         0.65870
H          2.35491       -11.14768         0.31700
H          5.05788       -11.16061         0.29824
H          7.08168        -9.96768         0.81528
H          8.43462        -7.68557         0.65135
H          9.51190        -5.48371         1.52775
H         10.75223        -3.32231         1.68368
