         320
 CSIRO Nanostructure Databank - Neutral Graphene Oxide Data Set
C          1.26507         2.10174        -1.22105
C          1.19319         3.45657        -0.99148
C          2.47753         1.37577        -1.11380
C          2.34034         4.17741        -0.44804
C          1.34879         6.30597         0.31652
C          1.41311         7.70627         0.62937
C          2.34994         5.66875        -0.35413
C          2.43794         8.50802         0.20001
C          1.29019        10.61436         0.84299
C          1.29767        11.98242         1.10771
C          2.46055         9.93684         0.46918
C          2.49036        12.72816         1.05525
C          1.26475        14.98254         1.42107
C          1.30948        16.33161         1.60433
C          2.48048        14.15757         1.49151
C          2.54961        17.07110         1.64385
C          2.55820        18.49721         1.72048
C          3.69494         2.02173        -0.86470
C          3.67513         3.44139        -0.46028
C          4.94493         1.37023        -0.93070
C          4.92871         4.20628        -0.54822
C          3.56364         6.41659        -0.77759
C          3.47222         7.95827        -0.76264
C          4.88934         5.67184        -0.76990
C          4.83438         8.66339        -0.62998
C          3.68936        10.68137         0.34623
C          3.69534        12.08622         0.69398
C          4.86033        10.04125        -0.10211
C          4.96694        12.79558         0.72610
C          3.80231        14.92028         1.48141
C          3.76769        16.39256         1.43813
C          5.01329        14.23106         1.00930
C          4.95684        17.11890         1.18142
C          3.72385        19.21125         1.56631
C          4.95498        18.54846         1.25765
C          6.15391         2.07001        -0.72984
C          6.13011         3.52423        -0.60975
C          7.39126         1.39192        -0.74388
C          7.38527         4.24468        -0.52483
C          6.16283         6.40445        -0.61231
C          6.15213         7.88372        -0.65084
C          7.35600         5.70846        -0.44041
C          7.38945         8.59386        -0.23133
C          6.15708        10.79853        -0.24039
C          6.14571        12.13377         0.45631
C          7.37404         9.93443         0.05970
C          7.41678        12.85714         0.85942
C          6.14168        14.97990         0.71806
C          6.15231        16.43082         0.78789
C          7.39347        14.30368         0.42679
C          7.30239        17.15202         0.46278
C          6.15610        19.25068         1.03582
C          7.33894        18.57410         0.64798
C          8.61744         2.08240        -0.63325
C          8.57344         3.52652        -0.51331
C          9.85367         1.38248        -0.60046
C          9.85545         4.21765        -0.27819
C          8.59768         6.44347        -0.30586
C          8.63214         7.83154        -0.22561
C          9.87076         5.71188        -0.19505
C          9.89525         8.54215        -0.23837
C          8.66241        10.61647         0.29039
C          8.70145        12.10681         0.52830
C          9.89577         9.93586        -0.14205
C          9.87019        12.82227        -0.02666
C          8.51257        14.98973         0.07180
C          8.45136        16.47547        -0.24515
C          9.73581        14.26536        -0.33850
C          9.78252        17.18666        -0.05750
C          8.56671        19.26999         0.48971
C          9.79218        18.59703         0.22489
C         11.11373         2.03280        -0.61024
C         11.10071         3.50987        -0.70908
C         12.34794         1.38503        -0.54477
C         12.39505         4.25913        -0.65719
C         11.13877         6.44344        -0.35469
C         11.15052         7.83636        -0.34748
C         12.38371         5.68987        -0.23721
C         12.39607         8.57597        -0.38658
C         11.10989        10.67750        -0.18280
C         11.03940        12.12998        -0.25838
C         12.33665         9.98871        -0.28945
C         12.27773        12.84163        -0.64432
C         10.96785        15.08110        -0.65208
C         10.98858        16.52513        -0.29567
C         12.27222        14.36049        -0.77642
C         12.24135        17.20645        -0.19214
C         11.02360        19.29073         0.23678
C         12.25696        18.62128         0.04433
C         13.60965         2.08620        -0.51937
C         13.65622         3.50929        -0.54779
C         14.82783         1.37763        -0.41711
C         14.89122         4.22016        -0.60679
C         13.72402         6.44101        -0.38115
C         13.66523         7.90626        -0.54709
C         14.89651         5.64978        -0.75404
C         14.84680         8.63563        -0.83398
C         13.62478        10.72299        -0.04058
C         13.55734        12.19363        -0.36350
C         14.79358        10.05694        -0.74074
C         14.71710        12.93416        -0.42454
C         13.51073        15.09418        -0.49130
C         13.49369        16.50195        -0.28540
C         14.71925        14.38199        -0.42662
C         14.73111        17.19359        -0.17103
C         13.50132        19.31156         0.06960
C         14.73556        18.63639        -0.05886
C         16.07681         2.04706        -0.43996
C         16.10178         3.45899        -0.64302
C         17.29005         1.32443        -0.17407
C         17.39494         4.12829        -0.83195
C         16.12560         6.36829        -1.11130
C         16.13780         7.89702        -1.09586
C         17.42742         5.63284        -0.89052
C         17.41152         8.52179        -0.60611
C         15.85524        10.90986        -1.04474
C         15.97852        12.23377        -0.54036
C         17.65644         9.86950        -0.79577
C         17.21741        12.84569        -0.26242
C         15.94231        15.06125        -0.21230
C         15.96692        16.47526        -0.15767
C         17.15803        14.28254         0.06905
C         17.22758        17.18040        -0.18190
C         15.97277        19.32232        -0.10166
C         17.21775        18.63848        -0.24715
C         18.52560         1.95534        -0.00224
C         18.64865         3.38277        -0.38060
C         19.70586         1.28855         0.40368
C         19.79416         4.13144         0.17892
C         18.56728         6.33665        -0.20419
C         18.38888         7.76310         0.19131
C         19.64758         5.56637         0.48182
C         19.60898         8.51537         0.72960
C         18.53431        10.70533        -0.04241
C         18.45608        12.14249        -0.06610
C         19.61358        10.00806         0.64191
C         19.67576        12.89434         0.11780
C         18.48344        15.05607         0.11565
C         18.44757        16.48919        -0.20625
C         19.71437        14.28108        -0.06370
C         19.69028        17.13873        -0.49473
C         18.41707        19.32065        -0.41188
C         19.70890        18.63203        -0.75773
C         20.92850         1.98050         0.58762
C         20.92759         3.43997         0.59134
C         22.13423         1.30812         0.85555
C         22.13387         4.14351         0.96040
C         20.84142         6.35416         1.02392
C         20.90047         7.81847         0.83569
C         22.11592         5.59222         1.18511
C         22.11409         8.49356         0.55440
C         20.98476        10.72250         0.54994
C         20.96677        12.18712         0.24127
C         22.14173         9.89914         0.27960
C         22.18703        12.85180        -0.33631
C         20.91650        14.97062        -0.46211
C         20.88205        16.42064        -0.60522
C         22.06111        14.24820        -0.78648
C         22.14858        17.11771        -0.80873
C         20.93908        19.24881        -0.06348
C         22.20412        18.54284        -0.52084
C         23.36520         2.00624         0.96759
C         23.36327         3.45945         0.97320
C         24.58468         1.32041         1.07811
C         24.60727         4.16821         0.85386
C         23.42971         6.36746         0.98683
C         23.37656         7.76572         0.52560
C         24.63027         5.57683         0.69900
C         24.55416         8.36684         0.08492
C         23.25201        10.48840        -0.52036
C         23.28291        11.96556        -0.86193
C         24.53746         9.71037        -0.53477
C         24.58448        12.66347        -1.19566
C         23.27438        14.93949        -1.25502
C         23.30458        16.40559        -1.09573
C         24.58181        14.17172        -1.31543
C         24.60223        17.05417        -1.31128
C         23.40064        19.19338        -0.48886
C         24.64681        18.56312        -0.93753
C         25.82958         2.00301         1.02099
C         25.84311         3.42591         0.79604
C         27.05489         1.31521         1.11643
C         27.06126         4.07569         0.52577
C         25.80665         6.26508         0.31627
C         25.80861         7.65822         0.07897
C         27.02990         5.48620         0.09863
C         27.06557         8.39552         0.03571
C         25.87299        10.46834        -0.63650
C         25.89120        11.95232        -0.95421
C         27.04745         9.81555        -0.05869
C         27.09000        12.78235        -0.65736
C         25.86900        14.90266        -1.13426
C         25.86080        16.27554        -1.19963
C         27.09916        14.15195        -0.84584
C         27.15104        17.05752        -1.34649
C         25.92411        19.10059        -0.48118
C         27.11504        18.42871        -0.66966
C         28.28440         1.99541         1.01422
C         28.30253         3.39161         0.68248
C         29.52405         1.31904         1.23930
C         29.55398         4.07874         0.60737
C         28.35120         6.26360        -0.00124
C         28.28946         7.70090         0.23490
C         29.62665         5.50175         0.21280
C         29.49912         8.41128         0.69052
C         28.19340        10.64680         0.34406
C         28.24413        12.11822         0.00058
C         29.46693         9.94526         0.72379
C         29.56069        12.80482        -0.04316
C         28.35532        14.90767        -0.70652
C         28.37213        16.26525        -0.92616
C         29.59687        14.18236        -0.38190
C         29.63682        17.04068        -0.91095
C         28.33420        19.08038        -0.35744
C         29.58609        18.46703        -0.52777
C         30.70836         2.01319         1.24539
C         30.74076         3.41383         0.96678
C         31.95135         4.16518         1.22261
C         30.90262         6.27003         0.49923
C         30.81945         7.75149         0.65377
C         32.00599         5.51764         1.12130
C         31.94528         8.51881         0.79787
C         30.74546        10.66412         0.59438
C         30.74767        12.09627         0.27529
C         31.91272         9.94600         0.74837
C         31.97117        12.79609         0.26143
C         30.84777        14.85389        -0.36759
C         30.94576        16.30508        -0.65422
C         32.01420        14.14658        -0.03990
C         32.07508        17.09465        -0.14186
C         30.77532        19.15191        -0.23585
C         31.99836        18.46238        -0.05522
O         12.30436        13.50632        -1.95977
O         18.54688         6.16029        -1.65143
O          9.93795         4.83967         1.04565
O         29.30649         9.17123         1.94811
O         17.77063        14.67853         1.33745
O          3.24994        14.35757         2.72558
O         30.53732        16.70159        -2.00955
O         19.78095         5.86186         1.90632
O          8.96537        11.17799         1.63938
O         22.81856        10.99456        -1.84234
O         27.84233        11.67811         1.36463
O         21.97456        12.81336         1.12260
O         18.50945         8.05759         1.60414
O         27.65048         5.78460        -1.19409
O          4.14007         5.95848        -2.04170
O         20.25513        10.55711         1.81011
O          5.59346         8.48703        -1.89110
O         16.12551         7.15292        -2.35514
O         22.88576         6.08242         2.32134
O         24.63391        18.09861        -2.33579
O         10.06607        14.68124        -1.73386
O         23.85661        14.52663        -2.54477
O         16.91942        10.46757        -1.82999
O         11.68248         4.05208        -1.94119
O         13.17850         5.99042         0.93454
O         30.59115         5.79009        -0.85783
O         25.29703         9.71679        -1.76175
O         25.35245        12.14033        -2.30715
O         18.31441         3.55033        -1.80682
O          2.91419         3.62989         0.79612
O         13.87151        10.63401         1.40492
H         13.84861         9.68542         1.65460
O          6.31430        11.12593        -1.67516
H          6.11589        10.28951        -2.16759
O          2.96837         8.33049        -2.06853
H          3.58827         7.93111        -2.72112
O          7.35146        12.96724         2.31655
H          7.77184        12.15156         2.67939
O         27.29425        17.31689        -2.77226
H         26.44286        17.71781        -3.07080
O         20.81323        19.13561         1.35826
H         20.70427        18.18852         1.58552
O         19.92906        18.84701        -2.18478
H         19.17324        18.45718        -2.67164
O          8.14008        16.58284        -1.67433
H          8.78068        15.98803        -2.13950
H          0.36940         1.57000        -1.57336
H          0.28779         4.02048        -1.25756
H          2.47805         0.29959        -1.33884
H          0.48553         5.72977         0.67795
H          0.62114         8.11748         1.27041
H          0.33859        10.07016         0.90874
H          0.35831        12.47206         1.39778
H          0.29849        14.49719         1.22102
H          0.37213        16.90807         1.60266
H          1.61045        19.02316         1.90653
H          4.97931         0.29153        -1.14511
H          3.71484        20.30836         1.63990
H          7.39764         0.29637        -0.84451
H          6.17357        20.34528         1.14689
H          9.82699         0.28225        -0.59427
H          8.58650        20.35768         0.65701
H         12.37193         0.28599        -0.49085
H         11.02538        20.37457         0.42609
H         14.80906         0.28268        -0.31460
H         13.49891        20.40433         0.19706
H         17.21527         0.24146         0.00702
H         15.97561        20.42221        -0.06997
H         19.68020         0.19971         0.56072
H         18.40901        20.42103        -0.44553
H         22.14130         0.20854         0.89264
H         21.00413        20.33729        -0.30491
H         24.58213         0.22263         1.15072
H         23.45659        20.22251        -0.10215
H         27.05255         0.23183         1.30726
H         25.92504        20.07154         0.03793
H         29.50849         0.24220         1.46032
H         28.29493        20.12092         0.00032
H         31.65130         1.49939         1.48168
H         32.81118         3.61545         1.63372
H         32.89204         6.06142         1.47816
H         32.93297         8.03779         0.82697
H         32.88639        10.45149         0.71976
H         32.91180        12.28580         0.50028
H         32.98643        14.65568        -0.04303
H         32.99837        16.58830         0.17102
H         30.73016        20.22868        -0.01841
H         32.87984        19.03249         0.27098
