         232
 CSIRO Nanostructure Databank - Neutral Graphene Oxide Data Set
C        -10.23535         0.62645        -2.78520
C         -9.12496         1.43505        -2.25238
C         -8.06710         0.68636        -1.46905
C         -7.42331         1.45703        -0.33226
C         -6.21420         0.72396         0.27243
C         -5.02180         1.44855         0.82390
C         -3.78940         0.73146         1.41773
C         -2.47750         1.45845         1.19286
C         -1.27390         0.72104         1.34873
C          0.03167         1.44916         1.09894
C          1.24126         0.75271         1.75128
C          2.53723         1.45791         1.38783
C          3.68187         0.74968         1.00185
C          4.93800         1.44362         0.73405
C          6.08878         0.77682         0.33167
C          7.31705         1.48333         0.02943
C          8.39963         0.87217        -0.65657
C          9.45666         1.60385        -1.37374
C         10.51313         0.83230        -1.99581
C         -9.23498         2.87929        -2.02270
C         -8.16289         3.58978        -1.43685
C         -7.14963         2.88118        -0.73514
C         -5.91028         3.53118        -0.36252
C         -4.89217         2.88208         0.49074
C         -3.71607         3.55804         0.76963
C         -2.49976         2.86065         1.11289
C         -1.25351         3.61842         1.22209
C         -0.05242         2.92921         1.40193
C          1.17149         3.68546         1.64437
C          2.53949         2.90083         1.61053
C          3.76823         3.70099         1.30031
C          4.98703         2.91277         0.90813
C          6.16611         3.64242         0.41388
C          7.30830         2.90456         0.28725
C          8.76357         3.97606        -1.00471
C          9.50314         2.96772        -1.70290
C         -8.13973         5.03692        -1.45381
C         -7.09333         5.76821        -0.92161
C         -5.86073         5.07534        -0.50755
C         -4.86417         5.80135         0.28876
C         -3.76134         5.03898         0.87531
C         -2.48020         5.82184         1.21592
C         -1.23216         5.04425         1.09348
C          0.02067         5.68054         0.82036
C          1.20618         5.08904         1.23984
C          2.48501         5.87981         1.47566
C          3.69800         5.12919         0.97226
C          4.97934         5.85525         0.77919
C          5.99991         5.07923        -0.05004
C          7.23436         5.85989        -0.49916
C          8.21643         5.17443        -1.37385
C         -7.09894         7.19955        -0.79554
C         -6.03504         7.89201        -0.24651
C         -4.90304         7.18930         0.33758
C         -3.74873         7.93131         0.80972
C         -2.56690         7.29997         1.11792
C         -1.39377         8.17105         1.46320
C          0.03693         6.92552         0.00086
C          1.32782         7.75232        -0.02498
C          2.42195         7.32115         0.96547
C          3.69315         8.09046         0.73443
C          5.01856         7.36467         0.80635
C          6.29434         8.09724         0.34592
C          7.26715         7.20795        -0.40300
C         -6.01453         9.34644        -0.25087
C         -4.98830        10.06351         0.24606
C         -3.78610         9.45079         0.91156
C         -2.48703        10.04927         0.39402
C         -1.30415         9.43613         0.66073
C         -0.00958         9.96941         0.24018
C          1.14472         9.26620         0.03343
C          2.38903         9.92401        -0.33147
C          3.59772         9.30896        -0.13060
C          4.81736         9.88498        -0.65894
C          6.03092         9.32820        -0.48557
C        -10.24864        -0.72713        -2.68390
C         -9.21336        -1.47673        -1.98979
C         -8.19058        -0.77988        -1.31054
C         -7.17167        -1.48049        -0.63949
C         -6.01453        -0.70629        -0.12610
C         -4.79859        -1.43350         0.36711
C         -3.71286        -0.73891         1.09663
C         -2.52048        -1.43012         1.38821
C         -1.26647        -0.67637         1.53616
C         -0.00625        -1.38286         1.53396
C          1.21852        -0.71392         1.38945
C          2.41571        -1.40339         1.06065
C          3.63693        -0.69196         0.85206
C          4.79240        -1.40168         0.39696
C          6.14597        -0.72208         0.42925
C          7.20671        -1.33549        -0.45130
C          8.34151        -0.57450        -0.84889
C          9.40665        -1.26082        -1.49876
C         10.53192        -0.52460        -2.00466
C         -9.19580        -2.88837        -1.96045
C         -8.16154        -3.59797        -1.34429
C         -7.11156        -2.89314        -0.69394
C         -5.96543        -3.58421        -0.11723
C         -4.88900        -2.90585         0.40853
C         -3.78446        -3.58702         1.12405
C         -2.52141        -2.85084         1.35754
C         -1.32835        -3.62073         1.67317
C          0.03169        -2.84392         1.67367
C          1.24478        -3.55538         1.27651
C          2.39368        -2.84395         0.93552
C          3.59416        -3.54524         0.51916
C          4.73705        -2.77212         0.14361
C          5.80031        -3.43844        -0.69185
C          7.11371        -2.69618        -0.77201
C          8.19765        -3.36649        -1.38319
C          9.34849        -2.65356        -1.70259
C         -8.15057        -5.10577        -1.50849
C         -7.13651        -5.82544        -0.64361
C         -5.92540        -5.07057        -0.22085
C         -4.85208        -5.82015         0.48396
C         -3.82257        -5.07377         1.26921
C         -2.55107        -5.84665         1.53633
C         -1.28722        -5.06752         1.18541
C          0.00579        -5.80651         1.50216
C          1.28265        -5.03144         1.34732
C          2.50064        -5.73860         0.87569
C          3.65500        -4.95717         0.52384
C          4.86440        -5.64901         0.09993
C          5.96340        -4.90668        -0.41343
C          7.09447        -5.59409        -0.94916
C          8.05893        -4.80810        -1.80278
C         -7.25298        -7.14521        -0.39359
C         -6.29780        -7.94591         0.46763
C         -4.94991        -7.29186         0.65664
C         -3.80995        -8.01199         0.89702
C         -2.56270        -7.33786         1.36720
C         -1.25892        -8.06606         1.16792
C          0.01881        -7.29533         1.21713
C          1.17150        -7.79823         0.37747
C          2.48295        -7.11468         0.71170
C          3.74798        -7.82891         0.48309
C          4.93585        -7.04692         0.15195
C          6.22117        -7.79638        -0.10096
C          7.24935        -6.94769        -0.78938
C         -6.16221        -9.38620         0.03958
C         -4.99721       -10.06241         0.13344
C         -3.75104        -9.42295         0.53378
C         -2.53880       -10.05385         0.32990
C         -1.27152        -9.39540         0.50145
C         -0.07707        -9.98590         0.14696
C          1.19997        -9.30604         0.23022
C          2.36923        -9.94551        -0.06609
C          3.69249        -9.29052         0.05201
C          4.81834        -9.76729        -0.78480
C          5.96584        -9.07607        -0.88535
O         -6.92320        -7.96627         1.79779
H         -6.32784        -8.46005         2.40121
O         -4.86242        -0.87073        -1.03266
O          6.63508        -0.97718         1.79884
H          6.03828        -0.50997         2.42246
O          2.63662         5.91757         2.91456
H          3.07609         6.77724         3.12827
O         -1.28974        -4.99978        -0.27317
H         -2.17920        -4.73409        -0.59385
O          0.84553        -7.31422        -0.97425
H          1.55059        -7.60956        -1.58811
O          6.74642        -8.21288         1.20429
H          5.99350        -8.65448         1.66835
O          1.91217         3.32017         2.86082
O         -0.59689         7.88539         2.34949
O         -3.39726         5.36278         2.26063
O          1.81297         7.37818        -1.28747
O         -0.64035        -3.32322         2.89433
O          6.97871         8.55948         1.53927
H          6.87365         7.85186         2.21555
O         -4.30580        -4.28088         2.37943
O          5.24679         4.88249        -1.30452
H          5.87489         4.55677        -1.98463
O          0.75953        -5.48918         2.67719
O          0.26833         1.39065        -0.34774
H         -0.52776         1.73806        -0.80349
O         -8.45926         1.46391         0.69412
H         -8.00674         1.62848         1.55421
O         -0.87309         7.15275        -0.78510
O         -3.88610         9.79332         2.32704
H         -3.11347         9.40341         2.78978
O         -6.17314         1.04973         1.69762
O          1.08865         0.78324         3.18780
H          1.31749         1.69576         3.49498
O         -2.62802        -6.69941         2.69471
O         -7.87124        -5.41203        -2.88936
H         -6.94957        -5.13933        -3.07995
O          5.26187        -3.38984        -2.07044
H          5.89201        -3.90132        -2.63964
O         -3.93951         0.81885         2.86978
H         -4.87966         0.61415         3.07693
O          5.33327         6.59746         2.00796
O         -4.70986        -5.51328        -0.97026
O          7.50552        -4.81373        -3.14685
H          8.07888        -4.25285        -3.71015
O          8.52180         3.58249         0.32580
O         -0.37607        -8.09215         2.35079
O          4.79157         3.34865         2.32991
O         -7.76764         1.09447        -2.81634
O          2.89112         8.27016         1.96064
O          4.04434        -8.95549         1.44067
O         -5.26984         4.21661        -1.52078
H         11.36684        -1.07470        -2.46150
H         11.34134         1.39081        -2.45597
H         10.19995         3.27155        -2.50036
H          8.46795         5.63472        -2.34142
H          8.12615         7.73698        -0.84627
H          6.91885         9.81217        -0.91920
H          4.72064        10.80317        -1.25860
H          2.35670        10.91402        -0.81424
H          0.02606        11.06117         0.08051
H         -2.51796        11.00792        -0.14706
H         -5.02603        11.16294         0.21802
H         -6.87528         9.86154        -0.70423
H         -7.96215         7.75716        -1.18897
H         -9.02130         5.56316        -1.84948
H        -10.09205         3.42691        -2.44221
H        -11.08193         1.15128        -3.25316
H        -11.08708        -1.29605        -3.11256
H         -9.98280        -3.44618        -2.48910
H         -9.17504        -5.50756        -1.29906
H         -8.14869        -7.67827        -0.75122
H         -7.07559        -9.90771        -0.28448
H         -4.95225       -11.12341        -0.15678
H         -2.53632       -11.07942        -0.07080
H         -0.08156       -11.02065        -0.23020
H          2.35429       -11.01525        -0.33013
H          4.67452       -10.69796        -1.35583
H          6.78639        -9.46537        -1.50723
H          8.13881        -7.44881        -1.20103
H          9.06686        -5.30711        -1.82770
H         10.19877        -3.16360        -2.18077
