         621
 CSIRO Nanostructure Databank - Neutral Graphene Oxide Data Set
C          6.17408        32.10962         1.58484
C          6.11700        33.41588         1.25172
C          8.67538        27.84542         1.83663
C          8.63663        29.20966         1.56835
C          7.42266        29.97448         1.67606
C          8.61530        32.04107         1.07054
C          7.39117        31.32640         1.41618
C          8.57791        33.40235         0.80608
C          7.26401        34.09064         0.54452
C          8.50529        36.26889         0.34756
C          7.35606        35.57103         0.75558
C          8.50699        37.68212         0.23270
C         11.06999        23.51059         1.95027
C         11.05069        24.88910         1.78890
C          9.89101        25.70091         1.95122
C         11.08678        27.79473         1.33800
C          9.88734        27.09102         1.73959
C         11.07060        29.14552         1.02979
C          9.84913        29.90731         1.18985
C         11.14644        32.00068         0.75520
C          9.84213        31.28423         1.00317
C         10.93575        33.35031         0.09819
C          9.85935        34.20610         0.73520
C         10.83415        36.20081        -0.52770
C          9.72345        35.55270         0.07098
C         10.77957        37.60261        -0.72051
C          9.66059        38.36990        -0.22012
C         11.03536        40.45105        -0.39728
C          9.72515        39.76935        -0.17398
C         10.92051        41.94749        -0.56193
C         13.55462        19.13273         2.26477
C         13.55010        20.61113         2.21987
C         12.29985        21.37781         2.16583
C         13.48418        23.35029         1.29568
C         12.28491        22.72599         1.84817
C         13.37103        24.73684         0.79022
C         12.32957        25.57281         1.46434
C         13.49607        27.65977         0.51237
C         12.35371        27.04837         1.23553
C         13.44283        29.04283         0.17695
C         12.24367        29.79763         0.44316
C         13.32210        31.76647        -0.60144
C         12.18301        31.13577         0.08941
C         13.29818        33.22496        -0.95851
C         12.03433        33.99334        -0.68355
C         13.23090        36.08176        -1.24880
C         12.06460        35.46564        -0.83232
C         13.14590        37.49473        -1.69270
C         11.86700        38.28392        -1.44521
C         13.17336        40.50536        -1.69600
C         11.79020        39.81586        -1.57895
C         13.24074        41.96939        -1.40635
C         12.00615        42.68121        -0.97317
C         13.29961        44.78828        -0.98595
C         12.07312        44.10623        -0.90607
C         13.34654        46.19258        -0.85825
C         15.91196        14.81379         2.06901
C         15.89148        16.20480         1.90138
C         14.71016        16.96014         2.04447
C         15.82463        19.04843         1.25904
C         14.67320        18.39161         1.94302
C         15.95303        20.51369         1.22399
C         14.81491        21.32043         1.72821
C         15.83937        23.22623         0.44062
C         14.66719        22.67258         1.16738
C         15.79827        24.62393        -0.11811
C         14.53267        25.41290         0.11043
C         15.76474        27.54247        -0.44363
C         14.60778        26.89150         0.17649
C         15.96225        29.03542        -0.17659
C         14.61882        29.72272        -0.29124
C         15.90441        31.85029        -0.57673
C         14.61235        31.07024        -0.56480
C         15.79977        33.27662        -1.07711
C         14.58114        33.96753        -1.08034
C         15.72993        36.05692        -1.57278
C         14.52018        35.37402        -1.32783
C         15.72563        37.51208        -1.84733
C         14.42766        38.24552        -1.92624
C         15.72731        40.37219        -1.26902
C         14.41778        39.68574        -1.49238
C         15.76480        41.86361        -1.06972
C         14.52643        42.65525        -1.13958
C         15.80957        44.77300        -1.13084
C         14.55717        44.03848        -1.07561
C         15.80705        46.19111        -1.06592
C         14.56621        46.90734        -0.87533
C         15.81620        49.02878        -0.74210
C         14.60214        48.30660        -0.71924
C         15.82290        50.40712        -0.43390
C         18.37811        10.48817         2.33430
C         18.29497        11.83332         1.90928
C         17.11350        12.60791         2.05730
C         18.25226        14.65044         1.35480
C         17.09135        14.01705         1.84025
C         18.48032        16.12427         1.55967
C         17.19887        16.98988         1.87182
C         18.28629        18.99525         0.64006
C         17.07406        18.24783         1.00302
C         18.29346        20.37463         0.47174
C         17.10602        21.13562         0.81412
C         18.35721        23.23822         0.12140
C         17.17879        22.64866         0.86338
C         18.32717        24.64560        -0.25510
C         17.07818        25.32899        -0.36078
C         18.23752        27.45042        -1.19870
C         16.99800        26.72016        -0.78660
C         18.24604        28.94050        -1.25647
C         17.06858        29.67596        -0.99980
C         18.25146        31.77067        -1.52187
C         17.08236        31.08035        -1.13329
C         18.23750        33.22852        -1.60103
C         17.01167        33.95859        -1.38963
C         18.22433        36.09242        -1.74741
C         16.98021        35.37318        -1.59187
C         18.23598        37.53518        -1.75760
C         16.99562        38.26597        -1.67410
C         18.23132        40.39421        -1.82018
C         16.98670        39.64152        -1.56392
C         18.25454        41.89733        -1.73376
C         17.05853        42.60765        -1.19434
C         18.26433        44.73957        -1.48476
C         17.04208        44.07757        -1.30024
C         18.24310        46.20467        -1.58587
C         17.01790        46.92662        -1.21343
C         18.30118        49.04052        -1.01605
C         17.05321        48.32390        -1.02789
C         18.25686        50.51196        -0.87679
C         17.01170        51.16975        -0.42250
C         18.26056        53.22078         0.22074
C         17.03819        52.50155        -0.00220
C         18.23085        54.55478         0.73259
C         20.96145         6.36778         3.32562
C         20.41579         7.39218         2.52875
C         19.54330         8.43153         2.85172
C         20.69187        10.25975         1.47924
C         19.52522         9.68417         2.14134
C         20.66500        11.68186         1.25957
C         19.49468        12.43221         1.39841
C         20.67936        14.56989         0.54876
C         19.42055        13.84868         0.96623
C         20.74501        16.04129         0.43886
C         19.43972        16.72341         0.53368
C         20.72149        18.87329        -0.02575
C         19.45104        18.20129         0.26228
C         20.71129        20.28513        -0.16112
C         19.50408        21.05205         0.08333
C         20.88274        23.12319        -0.16109
C         19.50459        22.47143        -0.07041
C         20.84740        24.63403        -0.47921
C         19.53856        25.31609        -0.56297
C         20.77487        27.41823        -1.36047
C         19.51696        26.67174        -1.13755
C         20.72846        28.89967        -1.36696
C         19.45390        29.63007        -1.49925
C         20.71785        31.73380        -1.96594
C         19.47641        31.04139        -1.66939
C         20.59572        33.16246        -2.48530
C         19.41375        33.92837        -1.90834
C         20.71949        36.04178        -1.83114
C         19.43514        35.35253        -1.86546
C         20.70738        37.49642        -1.52133
C         19.45916        38.25800        -1.71867
C         20.73454        40.42293        -1.71472
C         19.51079        39.66915        -1.74438
C         20.74308        41.86681        -1.67494
C         19.53896        42.61330        -1.62506
C         20.76438        44.74279        -1.42772
C         19.51568        44.02810        -1.54330
C         20.79502        46.15349        -1.24835
C         19.58544        46.96451        -1.46926
C         20.77603        49.05513        -0.73639
C         19.53653        48.38245        -1.07213
C         20.80286        50.43560        -0.53173
C         19.57955        51.26050        -0.64658
C         20.73932        53.32053         0.29179
C         19.50178        52.58642        -0.00356
C         20.67544        54.58708         1.05245
C         19.39599        55.24651         1.15225
C         20.52518        57.20344         2.15511
C         19.35937        56.56831         1.65307
C         20.54367        58.55999         2.56042
C         23.66775         3.90436         3.86399
C         22.44931         4.54860         3.86438
C         23.28896         6.22638         2.25200
C         22.20009         5.71469         3.07353
C         23.21907         7.42439         1.48689
C         22.01875         8.14257         1.26638
C         23.15139        10.26249         0.90002
C         21.91969         9.55316         1.20515
C         23.17016        11.62714         0.80842
C         21.95140        12.40300         1.05944
C         23.16374        14.56624         0.22594
C         21.97529        13.87787         0.76243
C         23.15229        15.93121        -0.05178
C         21.90532        16.68824         0.07370
C         23.13153        18.79591        -0.47720
C         21.91760        18.12832        -0.16395
C         23.10233        20.20213        -0.73488
C         21.90053        20.91740        -0.60696
C         23.07167        22.98852        -1.56556
C         21.74313        22.31245        -1.17448
C         23.11951        24.47268        -1.78907
C         22.00109        25.30045        -1.21770
C         23.15054        27.40393        -2.15776
C         21.91346        26.73350        -1.60984
C         23.24057        28.88400        -1.90448
C         22.01210        29.64490        -1.59561
C         23.21455        31.69697        -2.24241
C         21.93867        31.06467        -1.99138
C         23.22315        33.17599        -2.38864
C         21.92236        33.93156        -2.41960
C         23.21471        36.03912        -1.85567
C         21.90518        35.35790        -1.98936
C         23.27673        37.52342        -1.69369
C         21.99894        38.28091        -1.51428
C         23.20461        40.45112        -1.76631
C         21.98792        39.74516        -1.72752
C         23.22100        41.86215        -1.63476
C         21.98548        42.57348        -1.57263
C         23.21571        44.66159        -1.12326
C         21.98095        43.99248        -1.39626
C         23.18796        46.05133        -0.79846
C         21.99237        46.80369        -0.85665
C         23.07858        48.80069         0.08825
C         21.98031        48.23714        -0.52974
C         23.21461        50.25957         0.23106
C         22.06288        51.12317        -0.18669
C         23.24726        53.14977         0.90416
C         22.05334        52.58421         0.18180
C         23.12361        54.48244         1.57150
C         21.80878        55.16320         1.61898
C         22.86769        56.99386         2.92918
C         21.73995        56.43966         2.26250
C         22.89724        58.35498         3.25306
C         21.73009        59.16509         3.02564
C         23.00480        61.13920         3.72356
C         21.80633        60.55988         3.30037
C         24.74924         4.44905         3.14487
C         25.77394         6.19658         1.77870
C         24.58911         5.60643         2.38420
C         25.73679         7.37560         1.10929
C         24.43492         8.02695         0.90923
C         25.69378        10.24701         0.62520
C         24.40021         9.51032         0.58897
C         25.67938        11.61323         0.64387
C         24.40224        12.31635         0.37435
C         25.64723        14.53333         0.01145
C         24.39312        13.78761         0.08798
C         25.61035        15.88333        -0.30140
C         24.37312        16.60918        -0.39446
C         25.57393        18.73581        -0.75591
C         24.37705        18.03966        -0.58256
C         25.59172        20.20817        -0.62428
C         24.34494        20.95505        -0.92570
C         25.59493        23.11782        -1.16264
C         24.35592        22.28838        -1.27362
C         25.67564        24.50812        -1.68547
C         24.42650        25.20629        -2.14435
C         25.60211        27.35296        -1.70211
C         24.42857        26.68230        -1.79515
C         25.70448        28.75040        -2.27312
C         24.41727        29.53815        -2.15387
C         25.72440        31.67224        -2.38237
C         24.41169        30.98832        -2.21036
C         25.75240        33.17531        -2.32329
C         24.47862        33.87404        -1.88042
C         25.77487        36.07475        -2.24752
C         24.46943        35.33469        -2.28515
C         25.78647        37.54187        -2.03863
C         24.49846        38.25367        -2.15786
C         25.76924        40.43828        -1.76243
C         24.48657        39.75124        -2.03458
C         25.72656        41.82235        -1.53741
C         24.48089        42.54977        -1.47681
C         25.66262        44.52997        -0.57778
C         24.44037        43.92487        -1.14090
C         25.67115        45.94384        -0.16464
C         24.43993        46.71683        -0.40545
C         25.43595        48.53542         1.13471
C         24.37098        48.08669         0.17065
C         25.41737        49.96218         1.56658
C         24.20745        50.77977         1.22171
C         25.46230        52.80403         2.13742
C         24.22470        52.21946         1.55688
C         25.41401        54.08495         2.62522
C         24.10916        54.79480         2.65647
C         25.20467        56.67795         4.08072
C         23.99222        56.11361         3.34030
C         25.25201        58.18040         4.00709
C         24.12912        58.95617         3.74416
C         24.15114        60.37455         3.92465
C         26.92027         8.00943         0.42026
C         28.14403        10.20391         0.66507
C         26.97014         9.52280         0.62243
C         28.24337        11.67611         1.01314
C         26.91262        12.41217         0.82579
C         28.17945        14.53102         0.09335
C         26.90129        13.85493         0.39760
C         28.15794        15.84913        -0.26273
C         26.89449        16.54767        -0.61005
C         28.13603        18.79542        -0.86216
C         26.86791        18.04219        -0.87630
C         28.16343        20.18072        -0.95261
C         26.91125        20.92891        -0.67528
C         28.16043        23.03840        -1.33159
C         26.90868        22.40975        -0.88844
C         28.12929        24.42128        -1.76953
C         26.85588        25.17488        -1.84109
C         28.15929        27.36747        -1.65857
C         26.88495        26.67082        -2.12870
C         28.15164        28.80935        -1.59420
C         26.93489        29.54255        -1.88380
C         28.23144        31.65812        -1.89153
C         26.95605        30.91342        -2.04027
C         28.28239        33.17292        -1.93886
C         27.00926        33.92844        -2.04549
C         28.31947        36.05242        -1.97211
C         27.01375        35.28688        -2.00597
C         28.13795        37.44628        -1.38548
C         26.95040        38.24752        -1.78903
C         28.24569        40.35652        -1.36727
C         26.97903        39.68337        -1.64615
C         28.27636        41.78278        -1.24206
C         27.03137        42.58427        -1.55602
C         28.21736        44.56355        -0.45716
C         26.95291        43.80372        -0.67496
C         28.12484        45.94766         0.07302
C         26.79688        46.56311         0.28888
C         27.97818        48.62843         1.28615
C         26.74335        47.74496         1.23569
C         27.93931        49.93008         1.74292
C         26.68948        50.66270         1.87854
C         27.91069        52.70979         2.54882
C         26.68252        52.02114         2.17282
C         27.84954        54.04187         2.99021
C         26.60729        54.75171         3.12418
C         26.51337        56.02184         3.67582
C         29.41537        12.41098         0.39007
C         30.65422        14.46517        -0.19462
C         29.43257        13.77133         0.13511
C         30.70181        15.84642        -0.40931
C         29.42603        16.60088        -0.31461
C         30.67059        18.68164        -1.11758
C         29.40075        18.05881        -0.65764
C         30.65373        20.18981        -1.28206
C         29.37719        20.90959        -1.11907
C         30.64011        23.04069        -1.19643
C         29.37957        22.32565        -1.26192
C         30.64525        24.45411        -1.17033
C         29.45456        25.20609        -1.62800
C         30.59526        27.34663        -1.11005
C         29.32813        26.65270        -1.42173
C         30.60033        28.83581        -1.03987
C         29.32805        29.54321        -1.26644
C         30.53266        31.67738        -0.85279
C         29.37012        30.94806        -1.27731
C         30.56323        33.08882        -0.90826
C         29.45977        33.87858        -1.36529
C         30.61220        36.02880        -0.89274
C         29.46132        35.27926        -1.33651
C         30.63026        37.40651        -0.81934
C         29.37792        38.17198        -0.95101
C         30.74382        40.28848        -1.20646
C         29.42801        39.62363        -1.12894
C         30.75565        41.79411        -1.01186
C         29.45096        42.45582        -0.81796
C         30.59064        44.34873         0.34821
C         29.44533        43.76842        -0.28367
C         30.45525        45.63179         1.11761
C         29.24302        46.47697         0.90830
C         30.49028        48.54077         1.70711
C         29.30955        47.99310         0.93892
C         30.40505        49.91565         2.09471
C         29.18928        50.63097         2.07743
C         29.12921        51.98097         2.48950
C         31.90441        16.58326        -0.56082
C         33.11253        18.74521        -0.76669
C         31.93945        17.98594        -0.78840
C         33.11315        20.18324        -0.82202
C         31.90230        20.91246        -1.03320
C         33.02798        23.03839        -0.51226
C         31.85737        22.32626        -0.91523
C         32.95461        24.43910        -0.31856
C         31.78610        25.13414        -0.68917
C         32.89947        27.34977         0.02147
C         31.68517        26.58501        -0.42165
C         32.89222        28.82565        -0.05762
C         31.72996        29.55296        -0.41083
C         32.86494        31.65840         0.12666
C         31.70668        30.95771        -0.37357
C         32.86770        33.06182         0.18541
C         31.82088        33.78689        -0.56135
C         32.95426        36.00989         0.08590
C         31.84793        35.28093        -0.57525
C         33.02293        37.35674        -0.03084
C         31.79616        38.19661        -0.28033
C         33.17635        40.29173        -0.39931
C         32.05077        39.49241        -1.07639
C         33.15884        41.63707        -0.17804
C         32.04360        42.54865        -0.67560
C         33.03258        44.41016         0.71872
C         31.83492        43.74344         0.23708
C         32.97802        45.68857         1.25159
C         31.69001        46.26872         1.76565
C         31.63344        47.78460         1.84833
C         34.29466        20.91112        -0.56527
C         35.46012        23.01539        -0.06174
C         34.27942        22.31825        -0.36048
C         35.43091        24.39449         0.40555
C         34.09512        25.16271         0.28783
C         35.38717        27.31855         0.28453
C         34.18464        26.63150         0.18086
C         35.33198        28.78005         0.24103
C         34.08524        29.49926         0.24578
C         35.30010        31.59909         0.62930
C         34.08409        30.92483         0.37517
C         35.28039        32.98325         1.07031
C         33.93486        33.77543         0.86563
C         35.32735        35.94046         1.00220
C         33.94355        35.30042         0.98280
C         35.44028        37.29349         0.79111
C         34.32225        38.03299         0.15597
C         35.58656        40.21084         0.49064
C         34.40766        39.51718        -0.07806
C         35.52763        41.60773         0.63096
C         34.33663        42.32939         0.36489
C         34.27583        43.69658         0.65418
C         36.64708        25.20255         0.51914
C         37.86491        27.23497         1.04594
C         36.64143        26.58077         0.56505
C         38.25656        28.48785         0.64539
C         36.47110        29.56681         0.08195
C         37.79047        31.56777         0.83069
C         36.55372        30.93247         0.49176
C         37.75733        32.99251         1.11255
C         36.54991        33.69694         1.19079
C         37.84206        35.89730         1.53550
C         36.49780        35.15322         1.46337
C         37.86530        37.32326         1.21940
C         36.70047        38.02143         0.94412
C         36.70918        39.45381         0.84445
C         39.18241        29.44183         1.18054
C         40.22196        31.60252         1.36650
C         39.02851        30.83159         1.06895
C         40.23913        32.95784         1.38240
C         39.01275        33.71920         1.30038
C         39.05556        35.08788         1.40854
O         26.90540        17.05071        -1.99311
O         12.80817        26.45103         2.52668
O         22.84653        23.56373        -2.91188
O         10.86682        33.35944        -1.33975
O         18.96928        17.17853        -0.75005
O         28.98071        24.72607        -2.92236
O         13.08723        32.24191        -2.01569
O         37.58907        28.98270        -0.49973
O         14.55207        21.19756         3.15319
O         16.59942        42.15626         0.12268
O         20.84533         7.39974         1.18387
O         17.31222        17.48868         3.18254
O         16.04640        18.32882        -0.02105
O         24.97108        48.87163         2.47507
O         22.72392        33.71846        -3.64715
O         25.07905        35.69304        -3.53015
O         26.18613        43.63933         0.53871
O         26.31158        20.58588         0.61529
O         15.09985        37.89538        -3.15960
O         34.77693        38.58239        -1.14743
O         34.31158        33.19886         2.15487
O         28.37337        37.62838         0.03293
O         30.82837        41.20680        -2.36068
O         37.04823        35.56671         2.74983
O         19.81148        13.99166        -0.47633
O         21.93852        25.28425         0.25285
O         13.22883        41.43669        -2.80804
O         26.77807        13.46141         1.84818
O         29.49035        17.62915         0.75923
O         30.63992        19.25614        -2.44599
O         24.38047        39.06692        -3.35945
O         26.20443        23.10578         0.18678
O         31.85296        26.89129         0.99903
O         14.96452        39.77027        -0.13965
O         31.07582        28.11953        -2.26585
O         15.94327        27.03461        -1.78732
O         28.42570        45.72392        -1.34431
O         23.49581        54.87442         3.98784
O         18.06073        41.26190        -3.03955
O         32.38141        34.52529        -1.73564
O         24.30477        12.75340        -1.04436
O         25.97641        28.30011        -3.68701
O         34.51802        24.60132         1.56036
O         13.38162        24.91269        -0.66287
O         25.74999        32.50729        -3.60527
O         28.61491        32.39307        -3.13114
O         22.16930        13.41064         2.14687
O         24.25223         8.52254        -0.47528
O         21.62154        53.41284        -0.91774
O         18.73680        26.79179        -2.41462
O         16.35344        29.26923         1.16274
O         18.93114        51.21046        -1.96415
O         23.52868        51.26974         2.44141
O         12.15298        37.67673        -2.75417
O         23.80166        54.33596         0.27660
O         24.83980        47.90932        -1.21252
O         18.94076        46.72216        -2.75951
O         23.20697        50.88978        -1.09323
O         29.36228        45.68765         2.12099
O         26.78143        27.01124        -3.58757
O         21.42219        22.87830         1.09565
O         21.52221        29.41197        -0.21700
O         15.63938        23.43395        -0.97937
O         23.51362        36.65506        -0.53572
O         21.34812        37.89240        -0.25759
O         19.24317        16.06688         2.78986
H         18.66680        16.59213         3.44324
O         20.25128        33.02062        -3.89343
H         21.10075        33.02822        -4.39596
O         25.04295        56.35770         5.50017
H         24.51915        55.52247         5.53413
O         33.39954        35.58369         2.31527
H         33.81307        34.93194         2.92972
O         20.95103        22.10048        -2.35403
H         21.31530        22.66060        -3.08098
O         11.72584        32.30574         2.08324
H         11.85125        31.45706         2.56140
O         23.02343        27.30325        -3.61120
H         23.92573        27.38473        -4.00097
O         16.18572        31.95180         0.86440
H         16.33873        30.99951         1.18056
O         11.02099        40.09583        -2.74764
H         11.40765        39.58361        -3.49098
O         24.48856        33.81809        -0.43260
H         23.99137        34.58476        -0.06986
O         26.75910        47.08993         2.54166
H         26.22685        47.65981         3.14844
O         28.68673        36.29939        -3.35984
H         28.75112        35.43647        -3.82281
O         27.20290        43.08976        -2.91669
H         27.33346        42.32435        -3.51528
O         24.55418        25.22542        -3.59493
H         23.99535        24.49907        -3.95745
O         31.40133        38.68015         1.04250
H         31.18295        37.90654         1.60547
O         28.11453         7.36884         0.83877
H         28.83856         7.61140         0.22885
O         11.88090        40.19110         0.77442
H         11.43763        40.56574         1.56430
O         28.54632        11.68455         2.44253
H         28.18312        12.53185         2.79443
O         32.53361        43.12590        -1.92000
H         32.21175        42.55062        -2.65156
O         31.68731        45.86321         3.17794
H         30.73729        45.80648         3.44154
O         17.33413        23.05689         2.25317
H         18.20930        22.74905         2.57256
O         10.23430        34.53392         2.10802
H         10.72666        33.76018         2.48039
O         29.56077        48.34693        -0.45962
H         29.62011        49.32362        -0.52027
O         32.45555        39.11204        -2.39436
H         32.35647        39.89502        -2.97826
O          7.00351        33.91827        -0.90604
H          7.06468        32.95899        -1.10379
H          5.29763        31.60637         2.02094
H          5.18433        33.98402         1.38665
H          7.74989        27.32473         2.12488
H          6.50037        29.45674         1.98012
H          6.44748        36.13353         1.01929
H          7.61446        38.25406         0.52333
H         10.14381        22.98879         2.23648
H          8.94323        25.21056         2.22198
H          8.86144        40.34134         0.19735
H         10.00605        42.45773        -0.22105
H         12.65505        18.62352         2.64560
H         11.35714        20.86510         2.41099
H         11.15543        44.67599        -0.69593
H         12.40433        46.74952        -0.74561
H         14.99401        14.29741         2.39210
H         13.76122        16.42989         2.23175
H         13.66179        48.85111        -0.54729
H         14.87545        50.89317        -0.15718
H         17.50930        10.04146         2.84052
H         16.20254        12.11608         2.42959
H         16.09074        52.99157         0.26668
H         17.25513        55.05164         0.83770
H         20.43450         6.09506         4.25330
H         18.89713         8.34466         3.73858
H         18.40828        57.12077         1.64510
H         19.63126        59.16619         2.46112
H         23.81180         2.99344         4.46088
H         21.62584         4.15534         4.47790
H         23.04364        62.22314         3.90210
H         20.91604        61.18636         3.14804
H         25.74060         3.97859         3.20815
H         26.73503         5.68056         1.91747
H         26.17260        58.67577         4.35262
H         25.08032        60.85315         4.26506
H         26.77611         7.83866        -0.69236
H         29.09330         9.64530         0.64937
H         28.77761        54.54353         3.30274
H         27.43307        56.50387         4.04283
H         30.37467        11.86926         0.37675
H         31.58970        13.88607        -0.21420
H         31.30284        50.40909         2.49802
H         30.06203        52.48511         2.78435
H         32.86164        16.04842        -0.46460
H         34.06911        18.24096        -0.56269
H         33.91439        46.17796         1.56177
H         32.51438        48.25874         2.31214
H         35.24037        20.36718        -0.42467
H         36.43047        22.50379        -0.14869
H         36.39917        42.14876         1.02941
H         35.18401        44.20137         1.01695
H         37.60359        24.66902         0.62839
H         38.43557        26.70871         1.82534
H         38.83603        37.84055         1.18788
H         37.62496        39.98162         1.15165
H         40.09853        29.07272         1.66869
H         41.15879        31.04506         1.51344
H         41.18011        33.50313         1.54376
H         40.03060        35.59868         1.43043
