         671
 CSIRO Nanostructure Databank - Neutral Graphene Oxide Data Set
C          6.06764        31.80730        -1.00077
C          6.06276        33.16495        -0.93083
C          8.56585        27.48055        -1.42372
C          8.56302        28.96192        -1.71113
C          7.30662        29.69381        -1.31050
C          8.54884        31.81645        -1.17691
C          7.30087        31.05903        -1.16760
C          8.53869        33.21933        -1.06865
C          7.29038        33.93436        -0.97553
C          8.50900        36.07264        -0.92081
C          7.28821        35.31903        -0.90522
C          8.49004        37.48547        -0.82596
C         11.03012        23.21642        -1.06277
C         10.98289        24.65018        -1.05911
C          9.78312        25.34928        -1.07098
C         10.95337        27.53887        -0.82025
C          9.70995        26.79234        -1.13438
C         10.99405        29.00273        -1.00591
C          9.80606        29.68941        -1.24922
C         11.01895        31.83225        -1.06583
C          9.78785        31.11084        -1.18754
C         11.00607        33.24276        -1.07608
C          9.77687        33.95718        -1.06669
C         11.01559        36.17639        -1.15634
C          9.74606        35.37651        -1.01000
C         10.93652        37.54875        -0.55447
C          9.68448        38.23780        -0.60749
C         10.84673        40.36891        -0.12862
C          9.65407        39.63303        -0.40150
C         10.83791        41.76714        -0.06048
C         13.45449        18.97881        -1.11409
C         13.45499        20.38176        -1.22196
C         12.26508        21.10839        -1.15383
C         13.46483        23.25704        -1.69492
C         12.21379        22.52201        -1.26183
C         13.44547        24.71215        -1.31859
C         12.26907        25.35139        -1.07736
C         13.51389        27.55472        -0.85948
C         12.25562        26.79513        -0.77506
C         13.47885        28.96257        -0.68660
C         12.22954        29.69815        -0.82587
C         13.48133        31.82695        -0.69188
C         12.25041        31.10364        -0.91198
C         13.49354        33.21839        -0.71326
C         12.31163        33.98479        -1.23916
C         13.36510        36.06048        -0.24771
C         12.24305        35.41058        -0.76320
C         13.31404        37.45830         0.08637
C         12.10987        38.20979        -0.10474
C         13.26957        40.37149         0.35190
C         12.06970        39.63120         0.09819
C         13.29978        41.75262         0.33455
C         12.04715        42.58794         0.27349
C         13.43384        44.65573        -0.16312
C         12.24427        43.84128        -0.64116
C         13.42791        46.00529        -0.04189
C         15.76651        14.66056        -0.69759
C         15.79819        16.06852        -0.79860
C         14.62457        16.82850        -0.96826
C         15.90955        18.94316        -0.79928
C         14.64867        18.23689        -1.01039
C         15.96044        20.37424        -0.92431
C         14.76993        21.07433        -1.52818
C         15.93848        23.27048        -1.07807
C         14.73768        22.55542        -1.27007
C         15.96136        24.68690        -1.10105
C         14.74147        25.45452        -1.55027
C         15.94255        27.57061        -0.82801
C         14.73118        26.87751        -1.02685
C         15.92246        28.92998        -0.41472
C         14.68862        29.64797        -0.45393
C         15.83333        31.76186         0.03385
C         14.68003        31.09253        -0.33455
C         15.87813        33.20037         0.01326
C         14.65840        33.94470        -0.30899
C         15.79929        35.95656         0.58842
C         14.59450        35.31474        -0.06658
C         15.82975        37.45426         0.55813
C         14.51353        38.13366         0.60876
C         15.84186        40.33306         0.49915
C         14.50805        39.62751         0.69043
C         15.75961        41.75754         1.07357
C         14.61157        42.44788         0.35800
C         15.90652        44.62607         0.52729
C         14.68132        43.91080         0.10731
C         15.85750        46.05219         0.62707
C         14.60448        46.76050         0.38905
C         15.64685        48.89742         1.19314
C         14.52429        48.11503         0.57265
C         15.71537        50.33695         0.78172
C         18.19997        10.44699         0.12450
C         18.20516        11.80516        -0.17932
C         16.97936        12.53527        -0.32488
C         18.24325        14.62196        -0.89836
C         16.95617        13.90153        -0.58089
C         18.23220        16.05671        -0.44393
C         17.05951        16.77709        -0.55424
C         18.26618        18.93164         0.06570
C         17.04668        18.21740        -0.45692
C         18.36024        20.38210        -0.35160
C         17.15066        21.09150        -0.73708
C         18.40690        23.22860        -0.73825
C         17.18537        22.52424        -0.89054
C         18.44285        24.63801        -0.71538
C         17.27683        25.38819        -1.32775
C         18.46389        27.58621        -0.44695
C         17.23957        26.89119        -1.01296
C         18.32978        28.92741         0.17545
C         17.11345        29.58359         0.07104
C         18.33295        31.70057         0.40389
C         16.98564        30.98507         0.63435
C         18.26745        33.18230         0.69197
C         17.05296        33.88339         0.26347
C         18.32686        36.07335         0.47231
C         17.07313        35.37005         0.01015
C         18.30257        37.40672         0.78074
C         17.01054        38.10207         0.79226
C         18.26704        40.28914         1.35184
C         16.99337        39.55168         1.09385
C         18.27263        41.75888         1.11813
C         17.09965        42.46772         0.92983
C         18.39582        44.62460         0.75551
C         17.07608        43.90202         0.76809
C         18.28982        46.09239         1.08536
C         17.02741        46.78031         0.95700
C         18.15725        48.94315         1.19047
C         16.97820        48.20128         1.07908
C         18.18539        50.36503         1.02488
C         16.91153        51.06859         0.81511
C         18.10773        53.25828         0.55702
C         16.89243        52.45718         0.56761
C         18.10794        54.64233         0.01389
C         20.53873         6.24556         1.20537
C         20.57861         7.58794         0.85942
C         19.37887         8.33839         0.64109
C         20.67397        10.37386         0.19456
C         19.40845         9.70150         0.32641
C         20.71302        11.76512        -0.11480
C         19.47433        12.51268        -0.29010
C         20.72885        14.62244        -0.56055
C         19.49250        13.88079        -0.51199
C         20.76531        15.99288        -0.36980
C         19.49376        16.69616         0.06704
C         20.78316        18.84556         0.28653
C         19.53695        18.17385        -0.19800
C         20.80696        20.31962        -0.03088
C         19.58403        21.02002        -0.31980
C         20.84685        23.16621        -0.06316
C         19.71212        22.45714        -0.77387
C         20.75409        24.57872         0.18481
C         19.59572        25.33350        -0.20690
C         20.59518        27.37099         0.77023
C         19.59701        26.74948        -0.01570
C         20.66598        28.81989         0.96414
C         19.51714        29.54709         0.74852
C         20.80787        31.71993         0.88112
C         19.48422        31.01184         1.15679
C         20.83101        33.13838         0.65158
C         19.57369        33.90833         0.73739
C         20.84224        36.04709         0.68395
C         19.60868        35.33307         0.22262
C         20.79731        37.44116         0.97269
C         19.54697        38.14769         1.02492
C         20.76418        40.21612         1.58450
C         19.54913        39.52576         1.30739
C         20.61334        41.65444         2.07344
C         19.62960        42.44355         1.16871
C         20.72639        44.68667         1.70567
C         19.42253        43.91402         1.65119
C         20.72379        46.07020         1.56871
C         19.45130        46.76893         1.37912
C         20.72492        48.97794         1.25359
C         19.41731        48.23526         1.47403
C         20.66962        50.36257         0.76650
C         19.41015        51.03140         0.81464
C         20.57975        53.06603        -0.13573
C         19.41304        52.49337         0.60286
C         20.50570        54.49611        -0.57476
C         19.24069        55.25953        -0.38869
C         20.57276        57.37518        -0.70848
C         19.24718        56.67276        -0.92491
C         20.60318        58.73824        -0.59742
C         22.92119         3.35390         1.04790
C         21.78028         4.05252         1.02514
C         23.05659         6.16131         1.21433
C         21.76414         5.46433         1.57347
C         23.07259         7.53307         0.84566
C         21.85538         8.26216         0.69172
C         23.15603        10.26946         0.11798
C         21.89131         9.63359         0.34432
C         23.18920        11.68989        -0.19798
C         21.94802        12.40432        -0.31433
C         23.26893        14.55603        -0.75753
C         21.96557        13.82453        -0.72091
C         23.27449        16.06188        -0.76522
C         22.00068        16.76997        -0.42418
C         23.26970        18.94615        -0.40594
C         22.03064        18.11469        -0.14424
C         23.26272        20.31445         0.24954
C         21.99551        21.01606         0.16837
C         23.11202        23.08640         1.02359
C         21.95933        22.44856         0.34008
C         23.13561        24.58197         1.03585
C         21.77636        25.20970         0.93306
C         23.37435        27.52487         1.87971
C         21.51887        26.50078         1.38471
C         23.25258        28.82261         1.37634
C         21.92142        29.57225         1.49012
C         23.21105        31.63165         0.36044
C         21.97994        30.99696         0.92293
C         23.26900        33.14238         0.33908
C         22.04854        33.85254         0.53758
C         23.26511        36.02696         0.90296
C         22.04198        35.31706         0.68722
C         23.25704        37.42621         1.16544
C         22.01934        38.13774         1.23398
C         23.26449        40.20856         1.91459
C         21.98610        39.52889         1.57733
C         23.25858        41.71853         2.11799
C         21.93435        42.44322         2.20002
C         23.26680        44.65680         1.96366
C         21.94766        43.94156         2.07461
C         23.24407        46.14345         1.69730
C         21.95284        46.82891         1.51024
C         23.15695        48.84325         0.76015
C         21.96244        48.18156         1.12261
C         23.08440        50.16051         0.01843
C         21.86347        50.99809         0.34774
C         23.06119        53.00326        -0.47296
C         21.88044        52.35759        -0.03725
C         23.00440        54.41822        -0.90511
C         21.77858        55.22192        -0.74032
C         23.07459        57.32996        -0.69216
C         21.80998        56.61001        -0.74366
C         23.07241        58.74969        -0.52381
C         21.84189        59.46837        -0.48193
C         23.07680        61.55292        -0.21338
C         21.85903        60.86300        -0.33152
C         24.17502         3.95981         1.63488
C         25.48679         6.06773         1.06354
C         24.25348         5.43276         1.28493
C         25.55510         7.43791         0.73741
C         24.32486         8.17475         0.59247
C         25.64331        10.17267        -0.23067
C         24.34773         9.53744         0.22498
C         25.67895        11.64819         0.18673
C         24.41347        12.35752        -0.23482
C         25.73450        14.54899         0.02431
C         24.44542        13.82806        -0.19780
C         25.81199        15.99763        -0.21573
C         24.58854        16.76552        -0.57602
C         25.71730        18.84783         0.06878
C         24.56038        18.19745        -0.19276
C         25.71384        20.18855         0.77878
C         24.41829        20.94031         0.63937
C         25.69998        23.10144         1.34254
C         24.41326        22.33438         1.16858
C         25.67536        24.46153         1.60936
C         24.42738        25.26307         1.43034
C         25.74086        27.40596         1.60025
C         24.51548        26.72050         1.73392
C         25.69416        28.77117         1.26520
C         24.45619        29.40957         0.96311
C         25.77488        31.23160        -0.02428
C         24.43761        30.71640         0.27479
C         25.74194        33.39632        -0.06484
C         24.47290        33.92311         0.31312
C         25.73350        35.94048         0.97084
C         24.49428        35.29404         0.75104
C         25.74984        37.34309         1.42248
C         24.50295        38.14691         1.37557
C         25.84524        40.21678         2.03782
C         24.53973        39.50237         1.62955
C         25.77192        41.74398         1.80585
C         24.47273        42.47206         1.75058
C         25.63491        44.61059         1.21983
C         24.48499        43.87942         1.61555
C         25.67789        46.04790         1.08679
C         24.47223        46.81899         1.25200
C         25.63251        48.95525         0.75072
C         24.39625        48.17090         0.87101
C         25.61029        50.31195         0.17999
C         24.37654        50.95345        -0.03639
C         25.55598        53.06785        -0.56677
C         24.32071        52.33086        -0.42294
C         25.57567        54.44949        -0.65193
C         24.33499        55.19176        -0.92720
C         25.53851        57.33597        -0.51473
C         24.29848        56.64154        -0.70987
C         25.52673        58.73140        -0.37536
C         24.30877        59.45494        -0.38493
C         24.28246        60.86907        -0.23363
C         26.80734         8.11283         0.61153
C         28.10664        10.17835         0.30420
C         26.89159         9.46601         0.26421
C         28.19964        11.58415         0.10736
C         26.96230        12.34853        -0.31170
C         28.19543        14.48153         0.23937
C         27.00900        13.81049         0.07730
C         28.23294        15.93846         0.34125
C         26.98719        16.64326         0.06061
C         28.27686        18.83216         0.08661
C         26.99592        18.11097        -0.09201
C         28.21946        20.32533         0.26967
C         26.92744        21.05611         0.49776
C         28.18266        23.08413         1.19989
C         26.96933        22.43154         1.09505
C         28.25481        24.42222         1.81802
C         26.92802        25.17600         1.96997
C         28.29081        27.33889         1.56464
C         26.99987        26.71375         2.11379
C         28.26575        28.81397         1.40868
C         26.95954        29.55169         1.26724
C         28.22193        31.56598         0.14320
C         26.94649        30.83743         0.52717
C         28.19862        33.09623         0.35764
C         26.97006        33.89242         0.36697
C         28.20516        35.96691         0.82959
C         26.96665        35.25629         0.83155
C         28.26921        37.34921         0.95696
C         27.08081        38.08556         1.41760
C         28.13948        40.23244         0.85710
C         27.06781        39.57062         1.36471
C         28.31843        41.72731         1.09829
C         26.99225        42.47532         1.31928
C         27.93327        44.53090         0.05386
C         26.79745        43.83886         0.72474
C         27.96861        46.04079        -0.11604
C         26.84958        46.71067         0.65565
C         28.15605        48.84972         0.20864
C         26.94999        48.16115         0.72199
C         28.08375        50.26271        -0.05187
C         26.85595        50.94300        -0.10330
C         28.09728        53.09906        -0.45938
C         26.84280        52.30299        -0.75148
C         28.04621        54.49608        -0.42989
C         26.81282        55.20535        -0.53461
C         26.76860        56.59905        -0.48227
C         29.38904        12.28196         0.27418
C         30.62884        14.38967         0.53947
C         29.45113        13.72605         0.31729
C         30.71706        15.84747         0.91971
C         29.41420        16.62317         0.62841
C         30.46752        18.85167         1.11750
C         29.42599        18.07582         0.64984
C         30.59642        20.27483         0.89970
C         29.46573        21.00437         0.61938
C         30.70867        22.99340         1.33648
C         29.45621        22.50636         0.58016
C         30.75860        24.48474         1.26219
C         29.58830        25.21200         1.88099
C         30.71647        27.34334         1.02598
C         29.47364        26.66316         1.42883
C         30.74631        28.80185         0.95603
C         29.50124        29.53771         1.02635
C         30.66401        31.67566         0.82699
C         29.44438        30.89133         0.74232
C         30.66672        33.09330         0.45779
C         29.39622        33.77559         0.43168
C         30.68041        35.95968         0.60734
C         29.39363        35.26835         0.22703
C         30.67417        37.42918         0.42256
C         29.46209        38.07409         0.60825
C         30.58755        40.21795        -0.01970
C         29.26809        39.48237         0.12083
C         30.64767        41.71502         0.10584
C         29.20829        42.29058        -0.04267
C         30.47784        44.52414        -0.53001
C         29.20980        43.79942        -0.24336
C         30.52891        45.97360        -0.34058
C         29.33699        46.65312         0.28930
C         30.55032        48.82271        -0.34719
C         29.33057        48.14342         0.03030
C         30.52106        50.24415        -0.43671
C         29.32731        50.96699        -0.31910
C         29.30655        52.39080        -0.38339
C         31.91954        16.52465         0.25009
C         33.21158        18.74472         0.12377
C         32.30783        17.77138         0.66159
C         33.11150        20.14661         0.30698
C         31.92647        20.89259         0.77380
C         33.08734        23.04218         0.42270
C         31.93829        22.27839         0.80861
C         33.10383        24.42132         0.55894
C         31.90146        25.15953         0.90911
C         33.08002        27.25267         0.20647
C         31.87452        26.61066         0.77405
C         33.11706        28.78233         0.18082
C         31.94471        29.47846         0.71254
C         33.17794        31.67090         0.31001
C         32.02058        30.93105         0.84976
C         33.10666        33.02266         0.07676
C         31.87081        33.74626         0.25187
C         33.16320        35.95370         0.01824
C         31.94188        35.21606         0.39000
C         33.11618        37.40942        -0.03933
C         31.90033        38.10476         0.10966
C         32.98600        40.25015        -0.52791
C         31.82461        39.54767        -0.14613
C         32.87556        41.58265        -1.22622
C         31.70094        42.39672        -0.75086
C         32.92430        44.51963        -1.11156
C         31.72798        43.75940        -0.76617
C         32.87940        45.91393        -1.07328
C         31.70355        46.65460        -0.67225
C         31.71734        48.08815        -0.61791
C         34.22020        20.92071        -0.13580
C         35.28167        23.07280        -0.71246
C         34.24255        22.33311        -0.13543
C         35.12323        24.54447        -0.91478
C         34.43385        25.11346         0.38951
C         35.68364        27.29220         0.09586
C         34.36836        26.57472         0.23891
C         35.56499        28.77245        -0.18414
C         34.42694        29.46784         0.05786
C         35.55415        31.67671        -0.51484
C         34.49852        30.96192         0.28790
C         35.53429        33.03105        -0.65614
C         34.21731        33.77384        -0.63310
C         35.56127        35.97033        -0.49982
C         34.29477        35.24730        -0.29024
C         35.49373        37.43410        -0.69630
C         34.31955        38.11253        -0.41773
C         35.45195        40.26843        -1.11727
C         34.33642        39.62419        -0.31854
C         35.37127        41.65498        -1.38418
C         34.16779        42.37976        -1.25831
C         34.12943        43.77716        -1.31825
C         36.39737        25.29925        -1.22957
C         37.95619        27.25293        -1.27559
C         36.64513        26.56952        -0.84989
C         38.06794        28.71231        -0.76222
C         36.70426        29.42167        -0.94431
C         37.77541        31.57909        -1.72078
C         36.85797        30.93609        -0.67315
C         37.82978        33.08015        -1.55616
C         36.73607        33.74849        -1.10133
C         37.91637        35.96550        -1.53804
C         36.79592        35.22044        -0.90726
C         37.82528        37.40066        -1.56205
C         36.68126        38.11566        -1.18877
C         36.59801        39.52987        -1.40706
C         39.19780        29.54782        -1.36469
C         40.30539        31.70573        -1.87010
C         39.12086        30.87798        -1.64841
C         40.25883        33.04059        -2.07750
C         38.95549        33.77981        -2.27729
C         38.98502        35.27004        -2.05357
O         31.43119        31.45820         2.06540
O         32.80886        28.01906        -1.03740
O         27.56569        24.50029         3.11384
O         23.44035        45.57840         3.07535
O         18.81941        33.66236         1.97903
O         25.77708        32.29542        -0.93816
O         23.48233        22.48757         2.30840
O         31.56208        18.28871         1.77087
O         26.66531        42.47475         2.74040
O         20.15072        48.81424         2.60089
O         17.35970        39.87538         2.46905
O         20.29347        53.39026        -1.54912
O         31.42797        35.53867         1.77300
O         26.51900        37.54308         2.65214
O         18.96397        53.21098         1.79254
O         14.99420        42.91718        -1.00466
O         11.52757        27.11850         0.47037
O         24.79302        14.27900         1.19486
O         24.02393        16.55614        -1.93354
O         26.86759        43.89921        -0.76036
O         23.35356        40.80686         3.28220
O         23.54297        30.86269        -0.87922
O         22.73005        14.00599        -1.98628
O         22.25031        26.95316         2.48470
O         27.48942        21.00116        -0.83904
O         26.45926        48.79652         1.94656
O         24.00688        25.13104        -0.01793
O         18.17044        27.61276        -1.89653
O         21.86706        43.27328         3.40031
O         14.34642        38.85606         1.91563
O         23.69366        54.71686        -2.16393
O         29.52301        44.12375        -1.65660
O         36.59967        35.58409         0.50857
O         27.83678        18.46864        -1.26281
O         27.63282        29.52025         2.55912
O         35.31166        24.71679         1.48627
H         34.80057        24.77981         2.32083
O         23.24101        19.22357        -1.84307
H         23.43198        18.36712        -2.30092
O         27.75253        46.35007        -1.50945
H         27.25460        45.59607        -1.89794
O         16.11699        40.39224        -0.91947
H         15.76215        41.23570        -1.28551
O         29.50641        22.95776        -0.78995
H         28.81950        22.44707        -1.28237
O         20.03556        41.55590         3.39294
H         20.75358        41.33470         4.02441
O         15.39459        41.70465         2.45945
H         16.05558        41.12777         2.91758
O         18.87435        44.58365        -0.63751
H         18.14628        44.90788        -1.20966
O         29.43050        46.41861         1.72872
H         30.22111        46.88888         2.06764
O         25.85852        19.86215         2.20208
H         24.97423        19.63988         2.56397
O         29.96451        25.27753         3.30025
H         29.12457        25.32321         3.81647
O         34.67136        39.89667         1.09398
H         35.48713        39.39357         1.30464
O         26.88917        52.02220        -2.20131
H         26.79709        52.88077        -2.66749
O         28.79043        39.21951        -1.24685
H         28.65595        40.10319        -1.67374
O         11.84232        43.16707         1.60757
H         11.82174        42.43105         2.25565
O         25.61608        10.04665        -1.67353
H         26.20077        10.74490        -2.05621
O         15.34298        48.93381         2.64986
H         16.11420        49.34588         3.09644
O         33.80513        33.79227        -2.05172
H         33.75142        32.86286        -2.36205
O         19.42493        16.50979         1.54781
H         20.14380        17.08902         1.91790
O         12.51770        34.06275        -2.70363
H         11.93262        34.79699        -3.02618
O         14.95921        20.95791        -2.98487
H         14.35997        21.63647        -3.39493
O         17.01686        35.55760        -1.43480
H         17.90268        35.29374        -1.78588
O         16.67110        30.89351         2.04198
H         17.51702        30.73162         2.53532
O         12.46175        43.43609        -1.99090
H         13.39385        43.11625        -2.05120
O         21.74450         5.32769         3.04951
H         21.72943         6.23424         3.42452
O         38.64890        33.61948        -3.73223
H         37.97999        34.29899        -3.96574
O         32.59661        41.24879        -2.64002
H         32.53055        42.09585        -3.13082
O         31.24263        41.99649         1.40534
H         30.73088        41.53135         2.10912
O          8.59291        29.04674        -3.19085
H          8.56390        29.99856        -3.42779
O         17.53403        25.31153        -2.79532
H         18.09474        26.09939        -3.00531
O         24.13916         3.81271         3.06627
H         23.29836         4.23492         3.37001
O         22.85636        49.73950        -1.38497
H         22.86119        50.55169        -1.93724
O         18.98622        56.61251        -2.34249
H         19.65325        56.01938        -2.74764
O         25.70100        11.67975         1.63407
H         25.48007        12.60474         1.90637
O         38.07539        27.19823        -2.69583
H         37.35550        27.77241        -3.05195
O         26.00141        40.02205         3.45524
H         25.16788        40.33560         3.87995
O         19.72964        35.18673        -1.24693
H         20.09692        36.02495        -1.60069
O         20.78965        18.79889         1.78578
H         19.91882        19.19179         2.05460
O         28.39922        31.40540        -1.30206
H         27.57776        31.74845        -1.72475
O         26.92195        12.35965        -1.77725
H         27.76267        12.74858        -2.09967
O         36.26296        29.15234        -2.30812
H         36.50200        29.91460        -2.89226
O         29.00023        41.82098         2.36780
H         28.28985        41.80984         3.06082
O         36.29616        27.22976         1.42993
H         36.41440        26.27105         1.63815
O         18.84777        43.91269         2.96709
H         19.36353        43.28043         3.52648
O         29.30914        35.47289        -1.22302
H         28.45943        35.09309        -1.53167
O         18.65468        31.58238        -1.00262
H         17.89518        31.91213        -1.52772
O         30.90127        15.81919         2.36048
H         31.15728        16.73199         2.63568
O         34.99412        31.05179         1.69222
H         34.66995        31.89486         2.07826
O         18.07829        18.94585         1.55167
H         18.12755        17.99459         1.82526
O         14.84547        25.56190        -3.03099
H         15.81886        25.55000        -3.24501
O         30.52992        22.60346         2.72836
H         30.46244        23.42666         3.27092
O         18.30433        14.69169        -2.37268
H         17.48019        15.12844        -2.67837
O         37.53505        31.09740         0.60812
H         36.83125        31.05537         1.30552
O         38.41409        28.59805         0.63007
H         38.36882        29.50873         1.01089
O         37.24490        31.41490        -3.07333
H         37.79562        32.00802        -3.65116
O         19.23940        31.05817         2.58334
H         19.24540        32.01478         2.83853
O         11.14439        36.41632        -2.64882
H         11.82957        37.11050        -2.76582
O         21.72483        29.74848         2.91966
H         21.61605        28.85484         3.31407
O         34.14728        24.79317        -1.95545
H         34.47838        24.40079        -2.78949
O         28.62986        41.78746        -1.26914
H         28.83009        42.45641        -1.96912
O         20.26966        42.42386        -0.12445
H         19.78644        43.06364        -0.70610
O         15.74497        35.59415         1.99661
H         15.06646        36.15245         2.43202
O         13.47894        23.21586        -3.17496
H         14.00009        24.01862        -3.45575
O         20.06879        22.38959        -2.19526
H         20.03151        23.29994        -2.55794
O         26.98265        27.00187         3.53562
H         27.28690        26.19609         4.01069
H          5.12215        31.24642        -0.96224
H          5.11261        33.71025        -0.83032
H          7.63811        26.92750        -1.63933
H          6.35346        29.14266        -1.31423
H          6.33345        35.86010        -0.82513
H          7.52273        38.00909        -0.81546
H         10.10341        22.65546        -0.86516
H          8.84147        24.78210        -1.13366
H          8.69880        40.17235        -0.48689
H          9.88404        42.29925        -0.19803
H         12.49165        18.44572        -1.07571
H         11.32793        20.56626        -0.94822
H         11.31370        44.46065        -0.60855
H         12.50390        46.57144        -0.23658
H         14.79220        14.14904        -0.66679
H         13.66231        16.30838        -1.08917
H         13.57098        48.63428         0.39064
H         14.76869        50.87866         0.63243
H         17.23831         9.92103         0.22339
H         16.02984        11.99426        -0.18880
H         15.94272        52.93453         0.28308
H         17.15671        55.19726         0.03336
H         19.56287         5.75226         1.33365
H         18.40989         7.82702         0.74092
H         18.41808        57.26835        -0.46892
H         19.65994        59.30567        -0.59365
H         22.95100         2.31450         0.68721
H         20.84586         3.61999         0.63669
H         23.06977        62.64565        -0.09621
H         20.90992        61.41712        -0.30368
H         25.08525         3.42556         1.26564
H         26.41744         5.48718         1.15265
H         26.47622        59.27268        -0.25039
H         25.23143        61.41407        -0.12780
H         27.72754         7.55999         0.85962
H         29.02117         9.63980         0.60268
H         28.97771        55.06890        -0.30378
H         27.70894        57.15897        -0.36945
H         30.31081        11.72357         0.50151
H         31.55850        13.80674         0.63322
H         31.45571        50.78161        -0.65691
H         30.25901        52.94217        -0.35636
H         32.39187        16.05139        -0.62209
H         34.07182        18.38072        -0.45957
H         33.79338        46.48356        -1.29945
H         32.63916        48.62342        -0.88900
H         35.08486        20.38825        -0.56095
H         36.22626        22.57533        -0.98217
H         36.28333        42.18646        -1.70136
H         35.07680        44.32964        -1.41803
H         37.13646        24.78522        -1.86741
H         38.81172        26.66826        -0.84769
H         38.67653        37.96042        -1.97930
H         37.44462        40.03093        -1.90191
H         40.19617        29.07847        -1.34215
H         41.28510        31.20825        -1.78711
H         41.19435        33.60795        -2.19532
H         39.82056        35.82722        -2.50660
