         276
 CSIRO Nanostructure Databank - Neutral Graphene Oxide Data Set
C        -11.05037         0.58073        -1.15868
C         -9.97573         1.37331        -0.44739
C         -8.62770         0.66587        -0.62134
C         -7.40322         1.41536        -0.19094
C         -6.22164         0.57737         0.28556
C         -4.95169         1.41766         0.31051
C         -3.64921         0.71217         0.53657
C         -2.55390         1.53746         1.22269
C         -1.24475         0.78196         1.48292
C          0.02734         1.39095         1.04532
C          1.27590         0.75985         1.52493
C          2.58809         1.48512         1.40908
C          3.92309         0.71739         1.60136
C          5.11614         1.47497         1.03264
C          6.05287         0.86164         0.27625
C          7.01702         1.65260        -0.53457
C          8.08849         0.92396        -1.29613
C          9.21037         1.71609        -1.92109
C         10.39825         0.96487        -2.41465
C         -9.77654         2.82142        -0.89148
C         -8.66428         3.51000        -0.54805
C         -7.64284         2.84071         0.36247
C         -6.32505         3.62624         0.56584
C         -5.01647         2.88180         0.63916
C         -3.69125         3.61409         0.54442
C         -2.38838         2.79957         0.36193
C         -1.16737         3.62900         0.79551
C          0.05695         2.76038         0.52499
C          1.37698         3.52381         0.36012
C          2.65487         2.78267         0.63887
C          3.93409         3.54853         0.58732
C          5.15045         2.97474         1.32336
C          6.47112         3.71396         0.91091
C          7.15899         3.12000        -0.30474
C          8.39498         3.81720        -0.76097
C          9.31476         3.13849        -1.59062
C         -8.28009         4.83750        -1.17673
C         -7.60315         5.78447        -0.16270
C         -6.31243         5.13298         0.34614
C         -4.98901         5.83407         0.14631
C         -3.68944         5.08824         0.29053
C         -2.41346         5.67680        -0.26220
C         -1.14149         4.93021        -0.02156
C          0.15779         5.72985        -0.10049
C          1.37023         4.98623         0.43895
C          2.55626         5.70867         0.56761
C          3.88702         5.03077         0.26021
C          5.08863         5.79346         0.79007
C          6.33777         5.21435         0.75796
C          7.65832         5.97559         0.49843
C          8.60276         5.12845        -0.34121
C         -7.38545         7.19653        -0.67221
C         -6.16758         7.86004        -0.70482
C         -4.94755         7.15657        -0.48355
C         -3.67965         7.87951        -0.63484
C         -2.35301         7.15843        -0.49075
C         -1.20800         7.90143         0.03966
C         -0.01284         7.14530         0.44594
C          1.29482         7.89611         0.60367
C          2.54363         7.12899         0.46275
C          3.75560         7.86463         0.41582
C          4.91197         7.21138         0.85080
C          6.69158         8.29521         0.23809
C          7.50491         7.32338        -0.22606
C         -6.05455         9.27884        -1.09122
C         -4.92197         9.98711        -0.89231
C         -3.74450         9.33314        -0.19530
C         -2.40291        10.01465        -0.24317
C         -1.23662         9.32264         0.06562
C         -0.01426        10.07760         0.59388
C          1.30910         9.35976         0.37770
C          2.46380         9.99180         0.06525
C          3.73529         9.22365        -0.25885
C          5.01050        10.05462        -0.27397
C          6.29071         9.62042        -0.25952
C        -10.98146        -0.76580        -1.22945
C         -9.76941        -1.52995        -0.90573
C         -8.57058        -0.79904        -0.73871
C         -7.27151        -1.46002        -0.83987
C         -5.98917        -0.63812        -0.65767
C         -4.71060        -1.50058        -0.19404
C         -3.76309        -0.75617         0.78941
C         -2.61906        -1.46443         1.46241
C         -1.31002        -0.72304         1.73828
C         -0.00234        -1.50842         1.72151
C          1.29762        -0.74522         1.67880
C          2.49520        -1.44343         1.02901
C          3.83337        -0.73261         1.13902
C          4.95651        -1.37738         0.71692
C          5.95769        -0.59148        -0.10803
C          7.32901        -1.29200        -0.13624
C          8.41487        -0.47264        -0.84666
C          9.60598        -1.16423        -1.43129
C         10.50603        -0.37496        -2.31404
C         -9.76870        -2.93656        -0.86503
C         -8.56850        -3.70840        -0.73383
C         -7.26119        -2.98330        -0.79099
C         -6.05754        -3.64753        -0.21975
C         -5.00330        -2.92449         0.27527
C         -3.69929        -3.62315         0.56059
C         -2.66666        -3.01337         1.51371
C         -1.28448        -3.73864         1.50529
C         -0.02338        -2.93910         1.16360
C          1.27091        -3.70420         1.49280
C          2.57241        -2.92464         1.39359
C          3.86497        -3.64306         1.14921
C          5.08234        -2.85670         0.76069
C          6.28943        -3.54734         0.21516
C          7.19446        -2.73924        -0.68972
C          8.52355        -3.39715        -1.02034
C          9.61500        -2.63871        -1.42491
C         -8.53191        -5.08735        -0.81025
C         -7.18407        -5.74145        -1.05618
C         -6.17736        -5.13891        -0.03553
C         -4.95904        -5.85099         0.50087
C         -3.65900        -5.10849         0.43645
C         -2.35780        -5.91251         0.52631
C         -1.21632        -5.21597         1.23676
C          0.06960        -5.95074         1.03231
C          1.32269        -5.19107         1.31107
C          2.56191        -5.80357         0.68388
C          3.93857        -5.16813         1.02313
C          4.94793        -5.68869        -0.01786
C          6.07425        -4.83359        -0.53550
C          7.34261        -5.58517        -0.88335
C          8.51680        -4.81140        -1.11547
C         -7.19595        -7.23656        -1.42073
C         -6.51164        -8.21567        -0.78498
C         -4.87813        -7.32111         0.48019
C         -3.73131        -8.04664         0.40451
C         -2.49048        -7.37380         0.87189
C         -1.19761        -8.10617         0.87773
C          0.06763        -7.30348         0.85502
C          1.33324        -8.12512         1.01645
C          2.62082        -7.32292         0.80632
C          3.76366        -7.89532         0.04620
C          4.91099        -7.00838        -0.33240
C          6.14215        -7.79684        -0.70884
C          7.30134        -6.93996        -1.13195
C         -6.02677        -9.54527        -1.20641
C         -4.79002       -10.02223        -0.92487
C         -3.54803        -9.23869        -0.51166
C         -2.32756       -10.06919        -0.12634
C         -1.20838        -9.52484         0.40799
C          0.09455       -10.29832         0.58934
C          1.28758        -9.43035         0.24117
C          2.27934        -9.85067        -0.56768
C          3.41325        -8.94732        -0.98933
C          4.63591        -9.60091        -1.58909
C          5.83715        -9.00230        -1.57687
O         -1.30308         0.19942         2.85648
O          0.50295         7.43463         1.77461
O         -3.78823        -0.97651         2.23045
O         -5.74810         3.21619         1.84811
O          1.32738        -4.60191         2.64061
O          5.94011         7.96300         1.40029
O          6.29026         2.64572        -1.36161
O         -3.52947         4.56543         1.63561
O         -7.71192         1.31776        -1.59135
O         -6.12280        -7.94566         0.53542
O         -7.13626        -2.29575        -2.05353
O          1.86166         1.55649         2.66922
O         -1.27893        -4.69421         2.59753
O          0.81557        -1.32232         2.91386
O          3.45839        -3.21612         2.50234
O         -3.94054        -1.74094        -1.33025
O         -1.97103        -7.85744         2.13596
O         -3.39094        -4.22172        -0.72366
O          7.44375         3.58877         2.03699
O          3.52723         2.70378        -0.53691
O          0.64813         2.98908        -0.80342
O         -1.80373         4.87632        -1.32664
O          5.65547        -4.19174        -1.83856
O          8.01395         1.21171        -2.71057
O         -4.05056         1.13273        -0.78048
O          3.70236        -8.04751         1.49081
O          6.23417        -3.36402         1.61334
O         -2.86174         7.59609        -1.80306
O          6.40353        -2.86910        -1.93497
O         -5.74730         5.88273         1.44124
O         -6.06910        -5.42188         1.38502
O          9.65118        -0.53090        -0.05870
O         -6.67542        -5.14409        -2.28968
H         -7.38796        -5.13314        -2.96167
O         -2.09700         2.35686        -0.96044
H         -1.99173         3.13452        -1.55623
O          6.58827        -8.37616         0.57555
H          5.89870        -8.19986         1.25520
O         -7.29725         4.56281        -2.18556
H         -7.58945         3.79016        -2.71426
O         -3.15759        -8.58846        -1.77841
H         -2.56234        -7.82550        -1.56900
O         -3.27657        -3.33677         2.78156
H         -2.67131        -3.07619         3.50698
O          2.19648        -1.36398        -0.41016
H          3.03472        -1.40489        -0.92601
O         -6.55069         0.12777         1.61513
H         -5.74492        -0.21054         2.06655
O          7.70665         2.17893         2.23576
H          7.09865         1.94743         2.98214
O          4.15250         0.63519         3.03628
H          3.26332         0.57202         3.46740
O          0.11842       -11.49364        -0.17847
H         -0.47111       -12.14854         0.24473
O          1.30669        -8.53328         2.41464
H          1.40671        -7.73301         2.97254
O          4.97710         3.20067         2.73197
H          4.63443         2.36616         3.14625
O        -10.36674         1.31528         0.94154
H         -9.72988         1.86732         1.46487
O         -1.13463         3.95366         2.18925
H         -1.92001         3.54786         2.63304
O         -0.20404        10.22380         2.01221
H         -0.12931         9.32369         2.40581
O          2.32689        -5.53252        -0.73380
H          2.54368        -6.32772        -1.28130
O         -5.70152        -0.14890        -1.96280
H         -4.91477        -0.68462        -2.26788
O          5.36907        -0.60675        -1.43972
H          5.53321         0.25482        -1.88226
O          7.71635        -1.39727         1.23708
H          8.70095        -1.33238         1.27505
O         -8.23052         2.73428         1.67666
H         -7.48828         2.58830         2.31170
O          3.60533         8.88043        -1.68736
H          2.88406         8.22128        -1.78367
O         -0.10709        -2.82745        -0.27678
H          0.67799        -2.32626        -0.61574
O         -3.06093         1.96677         2.49978
H         -2.80802         1.27174         3.15655
O         -4.08756         9.23871         1.22806
H         -4.04386        10.13813         1.61549
O          4.02251         5.16854        -1.18159
H          3.78679         4.29468        -1.57725
O         -1.86421        -6.06444        -0.85422
H         -2.02807        -5.20639        -1.32122
O          0.46664         5.94652        -1.50067
H          0.35994         5.08654        -1.96504
O          8.30660         6.23347         1.76878
H          8.34368         5.37970         2.25622
O         -8.50276         5.88836         0.96387
H         -7.98112         6.23999         1.71840
O          2.85908        -8.09107        -2.06650
H          2.53050        -8.67566        -2.78280
O          4.40167        -5.66430         2.28649
H          4.15511        -5.00219         2.97268
H         11.35207        -0.89937        -2.78308
H         11.14858         1.53292        -2.98593
H         10.24169         3.66049        -1.87369
H          9.53481         5.62709        -0.65163
H          8.10262         7.48968        -1.13353
H          7.08904        10.33315        -0.52510
H          4.84276        11.09353        -0.60453
H          2.45639        11.07749        -0.12308
H          0.02483        11.10431         0.15253
H         -2.37632        11.11465        -0.30066
H         -4.87300        11.05205        -1.16736
H         -6.94011         9.76110        -1.53277
H         -8.29852         7.75799        -0.92559
H         -9.18540         5.32584        -1.63326
H        -10.52504         3.28492        -1.55529
H        -11.97233         1.09946        -1.46202
H        -11.83390        -1.33743        -1.62804
H        -10.72127        -3.47247        -0.99680
H         -9.46340        -5.67435        -0.83820
H         -7.52734        -7.42078        -2.45513
H         -6.73873       -10.21587        -1.71679
H         -4.57410       -11.05043        -1.26352
H         -2.28866       -11.10989        -0.49012
H          0.18449       -10.55379         1.68652
H          2.18755       -10.83415        -1.05583
H          4.48877       -10.52927        -2.16478
H          6.68964        -9.48298        -2.08231
H          8.22066        -7.45358        -1.45534
H          9.44216        -5.33061        -1.40842
H         10.51213        -3.15246        -1.80335
