         294
 CSIRO Nanostructure Databank - Neutral Graphene Oxide Data Set
C          2.26140         3.71223         3.56881
C          2.13376         4.87136         2.90043
C          3.02100         2.55802         3.02816
C          2.71067         5.04381         1.50900
C          1.71248         7.39124         1.12743
C          1.59399         8.54329         0.41842
C          2.94742         6.51674         1.10246
C          2.46929         8.85113        -0.68950
C          0.97384        10.78994        -1.33519
C          0.98517        11.95619        -0.67200
C          2.19514         9.97914        -1.68253
C          2.23503        12.58184        -0.17428
C          1.07253        14.86041         0.31093
C          1.12386        16.20660         0.43795
C          2.29791        14.04094         0.25452
C          2.38359        16.91731         0.44589
C          2.41428        18.31295         0.65738
C          3.96983         2.81836         1.90114
C          4.01616         4.23997         1.42577
C          5.19378         2.00467         1.68605
C          5.07196         4.62284         0.45305
C          3.72000         6.60759        -0.21336
C          3.48851         7.81186        -1.03615
C          4.83239         5.82322        -0.40037
C          4.74354         8.40792        -1.66017
C          3.45551        10.50987        -1.04518
C          3.53229        12.01111        -0.74318
C          4.75381         9.83439        -1.22631
C          4.75300        12.51853         0.06608
C          3.60694        14.75094         0.11968
C          3.59751        16.21085         0.20707
C          4.79062        14.05409        -0.03868
C          4.79722        16.93642         0.12665
C          3.61540        19.00529         0.66723
C          4.83218        18.32923         0.39764
C          6.15881         2.35077         0.80624
C          5.95719         3.52478        -0.14775
C          7.34263         1.42056         0.56011
C          7.27535         4.11324        -0.66987
C          6.00188         6.22535        -1.22863
C          6.02156         7.64564        -1.70009
C          7.33994         5.64091        -0.79806
C          7.28428         8.46418        -1.94464
C          6.05471        10.43603        -0.80653
C          6.08478        11.87083        -0.35417
C          7.39526         9.74256        -1.09870
C          7.31797        12.66850        -0.58247
C          6.03841        14.76861        -0.28778
C          6.03996        16.28279        -0.41605
C          7.23056        14.14197        -0.53561
C          7.30628        16.86149         0.24975
C          6.08605        19.03241         0.42555
C          7.30320        18.37128         0.31199
C          8.65800         2.14965         0.33903
C          8.57680         3.42052        -0.43757
C          9.84249         1.64050         0.75226
C          9.84564         4.26254        -0.45499
C          8.55373         6.17676        -1.59875
C          8.60182         7.66117        -1.84548
C          9.86497         5.37193        -1.53153
C          9.85702         8.42381        -1.52808
C          8.54945        10.62332        -1.67379
C          8.54503        12.01601        -1.08205
C          9.82541         9.80656        -1.38968
C          9.73028        12.69223        -0.94069
C          8.46785        14.91393        -0.95362
C          8.56240        16.31718        -0.37744
C          9.73885        14.13358        -0.73709
C          9.74724        17.02559        -0.39981
C          8.54832        19.03893         0.39040
C          9.78762        18.42756         0.08896
C         11.18148         2.31595         0.49027
C         11.01044         3.27165        -0.70662
C         12.35825         1.39783         0.24891
C         12.28911         4.02242        -1.08632
C         11.10962         6.21489        -1.25983
C         11.07204         7.67549        -1.15445
C         12.27063         5.51314        -1.07457
C         12.18351         8.33195        -0.65002
C         10.96475        10.53062        -0.87486
C         10.94571        11.90370        -0.77897
C         12.09474         9.76875        -0.20706
C         12.00649        12.66958        -0.04093
C         10.91666        14.82880        -0.62133
C         10.97401        16.27394        -0.67005
C         12.20306        14.03520        -0.72686
C         12.21534        16.86160        -0.88593
C         10.96124        19.19860         0.34500
C         12.26277        18.98957        -0.18316
C         13.55707         1.92645        -0.19951
C         13.60636         3.31511        -0.75235
C         14.79581         1.22636        -0.18178
C         14.81225         4.08932        -0.61533
C         13.53716         6.17620        -0.67585
C         13.46546         7.63598        -0.37595
C         14.82687         5.49880        -1.16797
C         14.73151         8.41112        -0.21205
C         13.42675        10.52514        -0.35257
C         13.30921        11.91785         0.24114
C         14.65661         9.75406         0.08276
C         14.57074        12.68048         0.46074
C         13.37015        14.81514        -0.07537
C         13.45421        16.17826        -0.70834
C         14.68131        14.02535        -0.22425
C         14.69820        16.72419        -0.90122
C         13.48184        19.46961         0.31065
C         14.78900        18.97655        -0.05045
C         16.03234         1.92926        -0.28676
C         15.97347         3.42392         0.04461
C         17.24342         1.30337        -0.47303
C         17.26104         4.17555        -0.16369
C         16.15162         6.33766        -0.92522
C         16.00730         7.71554        -0.25358
C         17.26303         5.51993        -0.28455
C         17.18315         8.40925        -0.05174
C         15.85010        10.46313         0.58012
C         15.85322        11.95689         0.73969
C         17.19006         9.77824         0.49041
C         17.10345        12.73312         1.04411
C         15.95100        14.82674         0.04336
C         15.94102        15.98735        -0.72072
C         17.06323        14.29304         0.96502
C         17.30890        17.35343         1.07589
C         15.93790        19.40793         0.59999
C         17.26965        18.76559         0.64406
C         18.53082         2.06396        -0.66828
C         18.53482         3.40886         0.10299
C         19.78409         1.31756        -0.25378
C         19.78615         4.18120        -0.26754
C         18.53761         6.25297        -0.07833
C         18.50811         7.72881        -0.02869
C         19.80133         5.52960        -0.32813
C         19.74746         8.54860        -0.33089
C         18.44523        10.65769         0.31983
C         18.43372        11.94937         1.21033
C         19.71456         9.80482         0.59818
C         19.66701        12.78662         0.94890
C         18.40517        14.97044         0.61842
C         18.40009        16.51113         0.84971
C         19.60605        14.25770         1.33127
C         19.64709        17.18409         0.29843
C         18.45627        19.43085         0.45570
C         19.69523        18.69730         0.44546
C         20.95725         1.96548        -0.20549
C         21.05281         3.41667        -0.61411
C         22.24049         4.17037        -0.05627
C         21.08485         6.29733        -0.62698
C         21.04670         7.76621        -0.18666
C         22.25835         5.51020        -0.07566
C         22.16775         8.49929         0.03166
C         20.99759        10.62314         0.52725
C         20.98936        12.05548         1.06918
C         22.14510         9.93110         0.30804
C         22.13936        12.90254         0.59120
C         20.92985        15.02583         1.08707
C         20.93667        16.50856         0.76385
C         22.12676        14.23775         0.70241
C         22.16122        17.22637         0.31375
C         20.90397        19.32400         0.26232
C         22.12351        18.57007         0.12361
O          2.23986        12.92776         1.22786
O          7.03462        12.00091         0.77091
O         18.60194         6.95961         1.22946
O          5.24416         4.88701         1.88245
O          5.34936         9.65738         0.19989
O         21.10456        16.03800         2.13356
O         13.70504        12.29979         1.59140
O         12.30358        18.18334        -1.33135
O         16.21750        12.31014         2.12804
O          5.25814         3.00911        -1.30394
O         12.41511        13.88958        -2.10351
O         14.90851        18.09646        -1.17784
O          5.88719         6.51541        -2.63591
O         16.70590         6.65972        -2.18400
O          3.73290         7.80187        -2.49084
O         13.44591         6.60121         0.71383
O          8.49546         6.69294        -2.96543
O         13.01796         3.40018        -2.14065
O         16.48474         9.85059         1.76284
O          7.89234         3.34922        -1.73023
O         10.65119         2.39794        -1.77871
H         10.44330         2.95605        -2.56628
O          7.46106         0.45775         1.60207
H          7.68009         0.92429         2.43416
O          1.79153         4.48576         0.54861
H          1.68299         3.52983         0.77525
O         11.54808         3.09474         1.67796
H         11.80957         2.47293         2.38940
O          7.52490         6.16010         0.53869
H          8.39041         5.83618         0.89810
O         18.58396         3.09643         1.52896
H         18.80973         3.92629         2.00225
O         13.62061        10.79826        -1.76727
H         13.69237         9.94888        -2.25141
O         19.34422        14.23975         2.74698
H         20.10619        13.79136         3.17782
O         10.04411         4.73439        -2.81005
H          9.64005         5.32550        -3.48824
O         18.59943         2.35074        -2.08611
H         19.51307         2.67857        -2.29332
O         19.64859         9.26944         1.93172
H         19.09763         9.87148         2.48906
O          6.06012        16.62110        -1.82507
H          6.78749        16.10659        -2.25862
O          7.86769         9.31745         0.20232
H          7.62927        10.02846         0.84343
O         19.72879        17.00620        -1.17544
H         18.93976        17.44430        -1.56108
O         15.74534         3.45502         1.49825
H         16.60792         3.19106         1.90313
O         18.50120        11.53400         2.60516
H         17.55216        11.44397         2.89701
O         16.74119        14.67675         2.32581
H         16.14607        13.97801         2.69613
O         19.68106         8.92467        -1.73517
H         20.53851         9.33649        -1.97651
O          4.55882        12.14777         1.43526
H          5.44046        12.17968         1.87007
O         18.60508        14.66690        -0.77393
H         19.12776        15.39395        -1.19818
O         18.44807        11.15107        -1.02813
H         18.60595        10.38858        -1.63911
O         21.22211         6.31247        -2.08852
H         20.44813         6.80278        -2.44730
O         11.80767         9.75446         1.22481
H         11.09647         9.09908         1.38752
O         16.14659        17.06095         1.68909
H         16.17705        16.16529         2.12275
O          3.70279        12.58822        -2.07111
H          3.00746        12.22508        -2.66201
O         14.66318         5.38624        -2.59154
H         15.50201         5.80715        -2.96281
O         21.16627         3.44274        -2.07517
H         21.25057         4.39575        -2.33582
O          9.95192         4.96159         0.80461
H         10.45765         4.41076         1.45547
O          3.80831         7.08120         2.12559
H          4.12863         7.95796         1.82243
O         14.87638        13.64845        -1.61426
H         13.97935        13.56330        -2.07234
O         21.17199        11.95118         2.52837
H         20.42537        11.40769         2.87617
O         16.99581        16.63880        -1.28156
H         16.62586        17.47583        -1.65346
O         13.09678        15.04334         1.31560
H         12.64829        14.23476         1.67771
O          2.14317         9.73114        -3.08044
H          2.71892         8.95480        -3.28910
O          7.28376        16.38314         1.62934
H          8.10935        16.67947         2.06682
O          7.11995         8.82163        -3.34121
H          7.07419         7.96342        -3.82580
O          8.32633        15.08650        -2.41882
H          9.21929        15.26620        -2.78689
O          2.68341         2.14530         1.66159
H          4.42783         2.58272        -1.00572
O          8.46316        10.91536        -3.07978
H          8.31490        10.07713        -3.58002
O         11.39453        12.93934         1.26018
H         11.42979        12.10159         1.77461
H          1.82521         3.60229         4.57323
H          1.57619         5.70351         3.35541
H          3.20564         1.70340         3.71031
H          0.95792         7.16988         1.89709
H          0.73584         9.20994         0.59771
H          0.01600        10.38222        -1.69295
H          0.03114        12.45813        -0.44998
H          0.10382        14.34250         0.34792
H          0.19684        16.78981         0.54072
H          1.46971        18.84627         0.83753
H          5.30765         1.07865         2.27317
H          3.63054        20.08605         0.86901
H          7.11820         0.85485        -0.38529
H          6.07233        20.12481         0.56807
H          9.84172         0.69305         1.31686
H          8.54548        20.11427         0.63253
H         12.32638         0.36469         0.62942
H         10.82778        20.06980         1.00810
H         14.80023         0.14194         0.00871
H         13.44717        20.13462         1.18711
H         17.25038         0.22399        -0.69828
H         15.81098        20.28184         1.26339
H         19.72024         0.25023         0.01013
H         18.47453        20.50967         0.23779
H         21.88110         1.43969         0.08223
H         23.10268         3.60389         0.32878
H         23.13593         6.05291         0.30546
H         23.15942         8.02338         0.02134
H         23.12397        10.42820         0.37850
H         23.05943        12.40409         0.25361
H         23.03356        14.79451         0.42422
H         23.13158        16.71006         0.31556
H         20.95337        20.42244         0.22960
H         23.04931        19.11642        -0.10783
