         234
 CSIRO Nanostructure Databank - Neutral Graphene Oxide Data Set
C          1.18956         2.37817        -0.77840
C          1.20735         3.71151        -0.65455
C          2.39967         1.51057        -0.59282
C          2.45170         4.46089        -0.36801
C          1.13734         6.58593         0.46444
C          1.11572         7.83546         0.95050
C          2.40178         5.87747         0.14791
C          2.33272         8.66769         1.30525
C          1.23048        10.61108         0.14922
C          1.25159        11.90456        -0.36256
C          2.41025         9.98554         0.56259
C          2.46256        12.60070        -0.49273
C          1.25649        14.83120        -0.54707
C          1.28194        16.18556        -0.58222
C          2.42306        14.02389        -0.94638
C          2.50465        16.91616        -0.83113
C          2.49418        18.36018        -0.69971
C          3.68222         2.28037        -0.36385
C          3.69466         3.67727        -0.15045
C          4.88144         1.56774        -0.36064
C          4.90420         4.32571         0.21608
C          3.63496         6.41508         0.79627
C          3.62804         7.87308         1.21519
C          4.92476         5.73894         0.56223
C          4.90753         8.59054         1.10885
C          3.65315        10.64856         0.40856
C          3.67053        11.95724        -0.14688
C          4.90793         9.99174         0.78740
C          4.97357        12.59009        -0.48205
C          3.73063        14.77137        -1.21446
C          3.69508        16.24178        -1.05229
C          5.02842        13.98880        -1.06790
C          4.94544        17.01666        -1.09812
C          3.64166        19.09726        -0.67162
C          4.93198        18.46817        -0.77329
C          6.10990         2.20708        -0.08593
C          6.09922         3.56985         0.30087
C          7.35037         1.48847        -0.24378
C          7.35807         4.18974         0.75778
C          6.09097         6.41083         0.91338
C          6.09141         7.82573         1.14164
C          7.35119         5.64441         1.26585
C          7.36898         8.52134         1.37560
C          6.12741        10.69940         0.70672
C          6.19823        11.99926         0.11813
C          7.35808        10.05030         1.21617
C          7.39558        12.74599         0.15117
C          6.38628        14.73757        -1.10646
C          6.25067        16.27280        -1.00862
C          7.45946        14.14126        -0.20416
C          7.35375        17.06253        -0.37943
C          6.11172        19.18305        -0.68121
C          7.39037        18.53380        -0.55981
C          8.58242         2.09992        -0.22621
C          8.64217         3.50889         0.30476
C          9.78343         1.27202        -0.35760
C          9.83339         4.38422         0.20637
C          8.64355         6.41133         1.01236
C          8.65296         7.80493         1.17024
C          9.86178         5.71970         0.75495
C          9.87040         8.53928         1.01113
C          8.65312        10.71397         0.96282
C          8.58063        12.15121         0.71606
C          9.83372         9.98983         0.86022
C          9.65551        12.97707         1.00940
C          8.62603        14.87610        -0.01150
C          8.60950        16.34643        -0.01575
C          9.84650        14.29157         0.48578
C          9.87101        17.08379         0.00017
C          8.58199        19.19307        -0.33234
C          9.82904        18.49874        -0.09324
C         10.96235         1.77765        -0.84911
C         10.95330         3.96314        -0.49110
C         12.32204         1.32311        -0.79823
C         12.26421         4.39686        -0.15369
C         11.11460         6.41025         0.80954
C         11.10779         7.83365         0.93495
C         12.32754         5.61498         0.58786
C         12.34379         8.61204         0.73625
C         11.02422        10.65707         0.18697
C         11.47957        11.96719         0.78797
C         12.28917         9.87105         0.16870
C         12.42122        12.75736         0.23308
C         11.09258        14.95317         0.36642
C         11.10142        16.37500         0.07521
C         12.44642        14.24267         0.61791
C         12.32273        17.11211        -0.03163
C         11.04093        19.20224         0.07628
C         12.28409        18.54303         0.09549
C         13.43868         2.16846        -0.80262
C         13.43175         3.60557        -0.45113
C         14.72545         1.50846        -0.92293
C         14.67989         4.21792        -0.20245
C         13.59336         5.97663         1.08051
C         13.63424         8.13226         1.13119
C         14.77958         5.38731         0.59536
C         14.82758         8.71537         0.72925
C         13.47841        10.57440        -0.35523
C         13.44036        12.07966        -0.67147
C         14.81067         9.91213        -0.12270
C         14.79538        12.76485        -0.51424
C         13.56700        14.95991        -0.09342
C         13.53460        16.32967        -0.26756
C         14.74383        14.25135        -0.74713
C         14.74057        16.94116        -0.78952
C         13.47643        19.32646         0.41434
C         14.70633        19.02014        -0.13341
C         15.94163         2.16494        -0.92618
C         15.92640         3.62687        -0.73223
C         17.21953         1.51673        -1.02642
C         17.22582         4.35471        -0.55006
C         16.07788         5.97110         0.86970
C         16.09919         8.13135         1.00232
C         17.24139         5.61253         0.22594
C         17.27399         8.59242         0.40143
C         16.07447        10.66519        -0.22246
C         16.01469        12.10315        -0.43941
C         17.25733         9.96110        -0.08830
C         17.26138        12.84708        -0.43480
C         16.05020        14.97545        -0.49104
C         16.01562        16.37843        -0.62744
C         17.25657        14.24316        -0.44470
C         17.25013        17.28560        -0.79982
C         16.01495        19.31851         0.32203
C         17.19405        18.59667         0.00308
C         18.43045         2.18239        -0.87190
C         18.49448         3.60337        -0.59421
C         19.68970         1.44907        -0.83237
C         19.68424         4.26672        -0.34463
C         18.47291         6.37991         0.28493
C         18.46676         7.77879         0.34457
C         19.72845         5.66325         0.06012
C         19.75768         8.50796         0.35499
C         18.52157        10.60340        -0.48508
C         18.54105        12.11562        -0.59816
C         19.81259         9.86748        -0.27783
C         19.83003        12.78727        -0.31432
C         18.54426        14.98096        -0.47905
C         18.55992        16.48236        -0.54984
C         19.75423        14.22956         0.00390
C         19.77350        17.17633        -0.03080
C         18.39989        19.18435         0.38727
C         19.68180        18.55351         0.29878
C         20.87374         2.08380        -0.69450
C         20.96994         3.58764        -0.76197
C         22.17848         4.18063        -0.09829
C         20.96536         6.27958         0.28429
C         21.04359         7.74868         0.50328
C         22.17229         5.47768         0.28768
C         22.30828         8.52354         0.33436
C         21.11723        10.62025        -0.28580
C         21.03917        12.11504        -0.22425
C         22.32504         9.86051         0.15511
C         22.25910        12.88505        -0.09795
C         21.03856        15.00446         0.20060
C         20.99915        16.49832         0.15353
C         22.27571        14.24126         0.00955
C         22.14482        17.23111         0.50703
C         20.85148        19.26520         0.65936
C         22.07618        18.61396         0.71632
O         14.11138         9.78796        -1.43054
O         16.15652         7.00197         1.83410
O          2.89301        14.27959        -2.30710
O         20.21561        14.54106         1.35305
O          5.81177        16.78933        -2.29341
O          7.29226         9.41815         2.52958
O         20.35436         8.32962         1.69227
O         14.64809        18.21325        -1.30268
O         18.84085        15.66325        -1.75062
O          5.07877        12.83210        -1.94187
O         13.66965         7.03309         2.00357
O         20.60920         9.95014        -1.49976
O         18.48381        11.25435        -1.78762
O         16.51848         4.40955        -1.84510
O          2.63499         5.61975        -1.27671
O         10.81311         3.02258        -1.50154
O          7.59456        16.74842         1.03420
O          3.54592         6.79811         2.21269
O          8.14971         3.40255         1.70771
O         10.67742        12.45925         1.82870
O         17.27843        17.69313        -2.18046
H         17.60875        16.92263        -2.69669
O          2.54015         0.62492        -1.71610
H          2.66579         1.17162        -2.51856
O          6.94516        14.50583        -2.42160
H          6.34791        14.93955        -3.07142
O         14.53688        14.42918        -2.20367
H         13.84733        13.76633        -2.46937
O         13.03627        12.20630        -2.06296
H         13.46766        11.46238        -2.54273
O         12.71921        14.33645         2.04768
H         11.99563        13.84805         2.50447
O          7.27107         5.56072         2.72025
H          7.80060         4.77264         2.98495
O         10.61790        10.97422        -1.17549
H         10.56643        10.13810        -1.68351
O          2.18119         9.03062         2.70652
H          2.46626         8.24740         3.22902
O         21.12301         3.90441        -2.19686
H         20.28955         3.64101        -2.64354
H          0.25063         1.86402        -1.03396
H          0.29178         4.29438        -0.83302
H          2.22526         0.84813         0.30138
H          0.18765         6.06528         0.26875
H          0.14046         8.28153         1.19842
H          0.26746        10.09374         0.24708
H          0.30807        12.37163        -0.67386
H          0.35021        14.31907        -0.19456
H          0.38588        16.76008        -0.30557
H          1.51949        18.85637        -0.58672
H          4.86899         0.49483        -0.60025
H          3.59795        20.18788        -0.53733
H          7.28760         0.42182        -0.50649
H          6.06866        20.27813        -0.57692
H          9.72577         0.23380         0.00246
H          8.60640        20.29276        -0.37079
H         12.50792         0.23778        -0.76003
H         11.01983        20.30023         0.13414
H         14.71417         0.41481        -1.05281
H         13.39121        20.09675         1.19497
H         17.23477         0.42632        -1.17933
H         16.12975        20.16982         1.01247
H         19.64766         0.34990        -0.87547
H         18.36819        20.19219         0.83007
H         21.81003         1.50598        -0.66382
H         23.10000         3.58286        -0.04119
H         23.09267         5.93125         0.68439
H         23.25738         8.00132         0.52969
H         23.29225        10.38486         0.17182
H         23.21631        12.35502        -0.20274
H         23.23202        14.77817        -0.06602
H         23.10385        16.71366         0.64650
H         20.77757        20.33588         0.89639
H         22.98550        19.16930         0.98443
