         424
 CSIRO Nanostructure Databank - Neutral Graphene Oxide Data Set
C          1.37992         1.94825         0.56130
C          1.31095         3.36894         0.37324
C          2.57715         1.28888         0.55483
C          2.43997         4.14223         0.26658
C          1.19238         6.30090         0.09551
C          1.16962         7.68448        -0.02104
C          2.40859         5.58879         0.11205
C          2.36920         8.42483        -0.03737
C          1.16690        10.70272         0.06697
C          1.19408        12.06228         0.01906
C          2.34201         9.89539        -0.26805
C          2.41884        12.81573        -0.13706
C          1.21262        15.01202        -0.26663
C          1.22965        16.39677        -0.33873
C          2.41041        14.26329        -0.17078
C          2.44842        17.11336        -0.31003
C          2.48012        18.54997        -0.38001
C          3.81132         2.00640         0.36562
C          3.80601         3.51683         0.46127
C          4.99804         1.35141         0.18574
C          4.83866         4.16642        -0.46979
C          3.63067         6.32648         0.02721
C          3.59747         7.74482         0.01333
C          4.89027         5.65632        -0.20057
C          4.88863         8.46981         0.30098
C          3.69166        10.67048        -0.28126
C          3.64096        12.13127        -0.11823
C          4.89870         9.94347         0.04676
C          4.88899        12.83094        -0.02694
C          3.65419        14.96817        -0.15085
C          3.66769        16.39355        -0.21111
C          4.88936        14.25805        -0.06894
C          4.91551        17.10178        -0.14327
C          3.66362        19.23537        -0.35502
C          4.92198        18.55166        -0.23696
C          6.22747         2.04672        -0.14324
C          6.18927         3.49353        -0.37933
C          7.38583         1.34926        -0.32557
C          7.33188         4.19286        -0.65234
C          6.07130         6.36653        -0.40359
C          6.12871         7.77851        -0.23608
C          7.25132         5.65883        -1.02297
C          7.31904         8.51686        -0.38915
C          6.15872        10.66083         0.39563
C          6.11000        12.12610         0.04959
C          7.35075         9.93427        -0.20236
C          7.33952        12.82553        -0.00260
C          6.12691        14.96894        -0.01019
C          6.11553        16.39751        -0.01763
C          7.35580        14.25131        -0.00050
C          7.38507        17.14406         0.29543
C          6.13089        19.24713        -0.28407
C          7.38262        18.58305        -0.16465
C          8.61278         1.99906        -0.88314
C          8.61564         3.51122        -0.74981
C          9.89545         1.39192        -0.39883
C          9.78425         4.18680        -0.93614
C          8.55385         6.39843        -0.86412
C          8.56866         7.79654        -0.70196
C          9.77729         5.64728        -1.33202
C          9.77485         8.52442        -0.82994
C          8.53470        10.69231        -0.40596
C          8.55762        12.07342        -0.15485
C          9.76932        10.02667        -0.98625
C          9.84189        12.79828         0.13534
C          8.61474        14.97815        -0.09002
C          8.63019        16.39226        -0.08489
C          9.83485        14.27160        -0.17695
C          9.83886        17.09297        -0.26297
C          8.59100        19.24896        -0.29475
C          9.84536        18.55932        -0.27052
C         11.07692         2.04335        -0.62286
C         11.06260         3.42945        -1.23890
C         12.33134         1.39483        -0.42332
C         12.32095         4.21873        -0.91548
C         11.07762         6.35106        -1.04902
C         11.02474         7.81460        -1.13389
C         12.28539         5.66770        -0.93372
C         12.34326         8.57554        -0.97176
C         11.06838        10.70321        -0.56131
C         11.08227        12.08400        -0.30910
C         12.29346        10.00278        -0.60403
C         12.30166        12.80572        -0.27005
C         11.05325        14.97181        -0.31694
C         11.04502        16.38158        -0.41253
C         12.31846        14.24575        -0.30042
C         12.31133        17.12410        -0.74857
C         11.05255        19.24664        -0.25172
C         12.31118        18.57105        -0.30955
C         13.53718         2.08367        -0.56149
C         13.51282         3.53870        -0.69979
C         14.77524         1.40207        -0.46571
C         14.75957         4.24883        -0.53700
C         13.53094         6.39467        -0.70511
C         13.55160         7.79788        -0.65360
C         14.75403         5.66902        -0.49647
C         14.74764         8.50381        -0.29980
C         13.51143        10.66711        -0.32824
C         13.52444        12.08563        -0.23124
C         14.74044         9.92862        -0.20535
C         14.75790        12.78892        -0.07254
C         13.53677        14.93751        -0.31134
C         13.57266        16.38597        -0.36870
C         14.77617        14.21658        -0.14264
C         14.75661        17.08073        -0.25677
C         13.51164        19.22779        -0.12934
C         14.77577        18.53027        -0.14273
C         16.00259         2.08314        -0.45752
C         15.98971         3.54251        -0.44984
C         17.22607         1.38186        -0.35256
C         17.20077         4.24621        -0.30115
C         15.97247         6.36468        -0.23582
C         15.96372         7.78857        -0.10835
C         17.19819         5.64400        -0.12400
C         17.17139         8.49103         0.19539
C         15.94387        10.62382         0.07605
C         15.95966        12.06647         0.11318
C         17.13583         9.89378         0.31544
C         17.17882        12.78152         0.28752
C         16.00128        14.90642        -0.05518
C         16.07047        16.36086        -0.42770
C         17.20073        14.20582         0.19774
C         17.26079        17.07980         0.14514
C         15.97631        19.19170         0.07141
C         17.22541        18.48899         0.26265
C         18.47152         2.04108        -0.28165
C         18.52677         3.54116        -0.47800
C         19.67863         1.36565        -0.13557
C         19.61222         4.15628         0.40169
C         18.44200         6.35415         0.12675
C         18.42520         7.76903         0.29117
C         19.66088         5.65564         0.25376
C         19.65042         8.44675         0.48516
C         18.33940        10.63119         0.72251
C         18.39201        12.08007         0.51959
C         19.65739         9.88173         0.80048
C         19.61969        12.75657         0.55979
C         18.43777        14.90837         0.40135
C         18.43786        16.36645         0.44606
C         19.62851        14.19283         0.56691
C         19.60453        17.06440         0.83704
C         18.40594        19.16987         0.64078
C         19.58736        18.46855         0.91422
C         20.93636         2.06486        -0.02249
C         20.93891         3.47778         0.17558
C         22.16190         1.38119        -0.08437
C         22.14499         4.19140         0.29770
C         20.88945         6.34242         0.38368
C         20.88713         7.76523         0.44625
C         22.14480         5.63144         0.44735
C         22.13158         8.49175         0.54841
C         20.89575        10.64691         0.60057
C         20.86112        12.02705         0.54064
C         22.14036         9.91217         0.54245
C         22.11200        12.77346         0.16677
C         20.88603        14.88715         0.75252
C         20.85071        16.31341         1.25073
C         22.08358        14.22334         0.58627
C         22.11135        17.07065         0.89963
C         20.82685        19.20524         1.38073
C         22.11123        18.50018         0.99007
C         23.39398         2.07248         0.04158
C         23.38829         3.49561         0.23531
C         24.62970         1.38963        -0.02185
C         24.61609         4.20597         0.38832
C         23.35365         6.33365         0.60560
C         23.35670         7.77685         0.66376
C         24.61170         5.62099         0.62225
C         24.56758         8.49819         0.86615
C         23.36764        10.62385         0.64566
C         23.37192        12.06001         0.59438
C         24.57249         9.89530         0.85825
C         24.56598        12.79068         0.67345
C         23.33353        14.94413         0.55322
C         23.28014        16.37865         0.58500
C         24.56319        14.23356         0.49255
C         24.48290        17.14196         0.22499
C         23.28308        19.22396         0.83752
C         24.52518        18.58743         0.51385
C         25.85572         2.07720         0.11450
C         25.84922         3.50331         0.33442
C         27.08917         1.39465         0.03834
C         27.07576         4.20668         0.48591
C         25.83120         6.30527         0.82746
C         25.81047         7.74571         1.28729
C         27.06506         5.61899         0.73217
C         27.09782         8.48769         1.00208
C         25.80448        10.64999         1.30159
C         25.81398        12.10662         0.86621
C         27.08620         9.89440         1.01752
C         27.00271        12.80754         0.73309
C         25.81135        14.92397         0.38606
C         25.80543        16.38315         0.12331
C         27.02810        14.23322         0.49502
C         27.02515        17.16228         0.30945
C         25.73954        19.25725         0.47125
C         26.99419        18.56103         0.35847
C         28.31753         2.07926         0.18313
C         28.31157         3.49851         0.41480
C         29.55253         1.39734         0.08098
C         29.54351         4.19445         0.57888
C         28.32525         6.32852         0.80912
C         28.31549         7.77889         0.89963
C         29.53116         5.62291         0.72824
C         29.56610         8.49636         0.96854
C         28.30860        10.60617         0.99390
C         28.27590        12.06229         0.70738
C         29.53328         9.92981         1.05700
C         29.54082        12.85285         0.72014
C         28.29475        14.96621         0.49332
C         28.33597        16.44290         0.13183
C         29.48354        14.32501         0.70661
C         29.47641        17.20579         0.82630
C         28.23650        19.29644         0.31126
C         29.47427        18.65470         0.38364
C         30.77702         2.06822         0.27011
C         30.76287         3.46114         0.58339
C         32.01913         1.36648         0.08350
C         32.02369         4.11972         0.95553
C         30.84695         6.34998         0.57511
C         30.78574         7.79518         1.00306
C         32.03363         5.62073         1.22956
C         32.05821         8.51541         1.15399
C         30.79705        10.68823         1.23768
C         30.80166        12.18547         1.15602
C         32.07315         9.98302         0.98293
C         32.04217        12.90134         0.80512
C         30.78546        15.04151         1.00126
C         30.78340        16.48962         0.57985
C         32.00969        14.25459         0.57880
C         31.89312        17.13216         0.13800
C         30.69679        19.30655         0.12471
C         31.91756        18.59088        -0.01070
C         33.25277         1.99919         0.14972
C         33.31316         3.39401         0.64259
C         34.49193         1.33743        -0.07363
C         34.54536         4.16702         0.40195
C         33.34567         6.28539         0.80283
C         33.37351         7.76169         0.96354
C         34.49550         5.61034         0.46525
C         34.46776         8.52099         0.33078
C         33.22977        10.65824         0.69310
C         33.34728        12.15286         0.91474
C         34.40341         9.93226         0.23975
C         34.44265        12.81695         0.12298
C         33.19139        14.94865         0.13598
C         33.07618        16.35663        -0.38762
C         34.37217        14.25131        -0.09109
C         34.38068        17.10616        -0.35317
C         33.13259        19.23725        -0.25712
C         34.37877        18.52935        -0.39111
C         35.71345         2.02005         0.01776
C         35.72540         3.46940         0.14815
C         36.95692         1.32294        -0.04739
C         36.98382         4.17362         0.02214
C         35.79038         6.40384         0.33428
C         35.53604         7.79785        -0.25508
C         36.99822         5.58687        -0.11964
C         36.42043         8.52466        -1.06495
C         35.46351        10.64796        -0.37621
C         35.47792        12.09372        -0.40479
C         36.46309         9.94112        -1.08704
C         36.55042        12.78149        -1.21909
C         35.56224        14.94570        -0.52815
C         35.57762        16.38206        -0.52873
C         36.71761        14.22843        -0.87495
C         36.80991        17.05361        -0.77642
C         35.60525        19.20064        -0.57639
C         36.81859        18.49135        -0.78371
C         38.17672         1.99568         0.00369
C         38.19849         3.43640        -0.01074
C         39.43723         1.29409         0.06236
C         39.45506         4.11248         0.02220
C         38.24682         6.20835        -0.31120
C         38.39277         7.48699        -0.94466
C         39.48628         5.52596        -0.07507
C         39.51562         8.26503        -0.81166
C         37.62678        10.65681        -1.58138
C         37.84419        11.99979        -1.31637
C         39.57673         9.58297        -1.36261
C         39.13576        12.65991        -1.38195
C         37.95082        14.87451        -1.12464
C         37.99427        16.30803        -1.04236
C         39.15738        14.10680        -1.36752
C         39.21692        17.00279        -1.28447
C         38.03990        19.15812        -1.02497
C         39.23041        18.43821        -1.27050
C         40.62973         1.95642         0.14955
C         40.68422         3.39776         0.13765
C         41.88132         4.12923         0.22161
C         40.70517         6.26059         0.03554
C         40.56476         7.78508         0.16192
C         41.88693         5.53632         0.20453
C         41.78718         8.66946         0.08396
C         40.53494        10.51711        -1.01373
C         40.38750        11.94787        -1.31994
C         41.70876         9.95802        -0.34043
C         41.58077        12.69686        -1.45016
C         40.38542        14.81395        -1.51083
C         40.41513        16.27296        -1.53371
C         41.58416        14.07131        -1.59788
C         41.59837        16.99349        -1.78058
C         40.45505        19.11714        -1.52111
C         41.61048        18.39709        -1.77549
O         18.90401        10.20770         2.01878
O         37.36608         7.83793        -1.83394
O         32.77860         3.44984         2.02955
O         30.79523        11.53758         2.47288
O         29.03450        12.30620        -0.55530
O          2.98883        10.23384        -1.52363
O         11.77282         8.34639        -2.31424
O         38.59060         9.93346        -2.29993
O         32.94278         8.16271         2.30005
O         25.03723        16.76191        -1.08321
O          6.95453         5.64889        -2.49464
H          6.79723         6.58257        -2.75807
O         31.87570         5.78715         2.64904
H         32.42717         5.09522         3.08021
O         22.14589        12.76621        -1.31049
H         22.91284        13.31372        -1.58481
O         32.78017        16.19803        -1.82895
H         33.51579        15.68412        -2.22640
O         19.22668         3.88446         1.78340
H         19.89795         4.29065         2.37068
O         20.82741        20.55822         0.92117
H         20.86063        20.54953        -0.05719
O         36.01584        12.79438        -2.60367
H         36.72278        13.14814        -3.18486
O         18.93074         3.77724        -1.85724
H         18.25375         3.37829        -2.44269
O          9.69890        10.25479        -2.43848
H         10.42607         9.71235        -2.83227
O         25.72970         7.71692         2.76754
H         26.50652         7.21219         3.09266
O         25.71103        10.68144         2.76973
H         25.64866         9.73958         3.06462
O         20.79791        16.23288         2.72142
H         21.54302        15.66544         3.01246
O          8.60017         1.74500        -2.33622
H          9.43594         2.14236        -2.69398
O         29.17645        17.18923         2.25818
H         29.68890        17.91105         2.67966
O          7.42259        17.21518         1.77567
H          6.63900        17.73444         2.05698
O          9.68307         5.60480        -2.82130
H          8.72716         5.42824        -3.02443
O          6.35588        10.62928         1.90105
H          7.27739        10.92465         2.06991
O         16.29530        16.36758        -1.89542
H         15.57281        15.84045        -2.29986
O          4.23596         3.85444         1.81308
H          3.58318         3.47616         2.43824
O         40.00741         7.99007         1.50710
H         40.66823         7.66970         2.15619
O         28.62399        16.49625        -1.29372
H         27.84979        16.13713        -1.77638
O         31.15302         6.35682        -0.86560
H         30.38988         6.75918        -1.33244
O         12.34194        17.16964        -2.22570
H         13.11712        17.71477        -2.48063
O          9.92344        12.74491         1.62529
H          9.32195        13.43775         1.97500
O         30.86325        15.05928         2.46801
H         30.15141        15.67563         2.77383
O         33.71177        12.28959         2.33268
H         32.92121        12.01365         2.85282
O          5.01441         8.32152         1.77197
H          5.62016         9.04221         2.09074
O          4.37992         3.99553        -1.83755
H          5.09023         4.34050        -2.42441
O         36.18415         6.70117         1.72070
H         35.40750         7.08277         2.18588
O         11.04365         3.22113        -2.69611
H         10.76651         4.09008        -3.08882
H          0.44096         1.38788         0.67156
H          0.31189         3.82140         0.29720
H          2.61227         0.19218         0.63591
H          0.23676         5.76223         0.14862
H          0.20300         8.20292        -0.08174
H          0.24340        10.19111         0.37357
H          0.26440        12.61000         0.22716
H          0.24411        14.49527        -0.30270
H          0.28343        16.95101        -0.42091
H          1.52733        19.09286        -0.46445
H          5.02336         0.25042         0.20619
H          3.66935        20.33308        -0.42423
H          7.39773         0.25795        -0.18083
H          6.12047        20.33176        -0.47305
H          9.89734         0.35590        -0.02495
H          8.59411        20.33814        -0.45871
H         12.34164         0.32433        -0.16758
H         11.04635        20.34391        -0.15655
H         14.76961         0.30438        -0.38678
H         13.51253        20.30640         0.09354
H         17.19900         0.28335        -0.27963
H         15.97265        20.28622         0.18892
H         19.68757         0.26474        -0.11313
H         18.39902        20.26591         0.73578
H         22.17143         0.29170        -0.23575
H         20.79223        19.25204         2.50508
H         24.63746         0.30116        -0.18080
H         23.26175        20.31462         0.98200
H         27.09477         0.30880        -0.13772
H         25.75883        20.34727         0.62091
H         29.55506         0.32068        -0.14391
H         28.19635        20.37999         0.12088
H         31.97473         0.29922        -0.18155
H         30.69132        20.38846        -0.08114
H         34.49067         0.25825        -0.28880
H         33.14779        20.33547        -0.32895
H         36.94392         0.22339        -0.09105
H         35.62120        20.30051        -0.59978
H         39.41885         0.19401         0.06276
H         38.06572        20.25806        -1.03022
H         41.57170         1.39219         0.21648
H         42.83541         3.59091         0.31958
H         42.84546         6.06643         0.30820
H         42.71133         8.32510         0.57382
H         42.59062        10.60402        -0.21217
H         42.54376        12.16850        -1.46658
H         42.54712        14.58218        -1.72579
H         42.53905        16.46774        -1.99057
H         40.47214        20.21634        -1.51510
H         42.55308        18.92601        -1.97493
