         470
 CSIRO Nanostructure Databank - Neutral Graphene Oxide Data Set
C         39.16742        51.87087        -4.07876
C         38.06398        52.72521        -4.10313
C         39.54304        54.62294        -3.90601
C         38.25147        54.10448        -4.02087
C         41.51506        49.96957        -3.93398
C         41.64869        51.44039        -3.97521
C         40.47386        52.37414        -3.97195
C         42.08367        54.39873        -3.74929
C         40.66195        53.78090        -3.87861
C         42.10926        55.76979        -3.10809
C         43.89629        49.52993        -3.23669
C         42.52988        49.12241        -3.64052
C         44.05356        51.05656        -2.96821
C         42.94439        52.00642        -3.39671
C         43.13189        53.74696        -1.60075
C         42.84004        53.40029        -2.90329
C         43.38811        55.06717        -1.13236
C         42.77276        56.07986        -1.95560
C         45.33817        46.29687        -1.69337
C         44.41888        47.19491        -2.22309
C         46.11637        48.85548        -2.23114
C         44.79485        48.52691        -2.55615
C         46.29469        50.96223        -1.79603
C         45.00855        51.51923        -1.92366
C         45.65139        53.14367        -0.17203
C         44.66469        52.43396        -0.92221
C         45.45297        54.47692         0.29478
C         44.34923        55.34689        -0.07205
C         45.30829        57.12486         1.38217
C         44.30763        56.63117         0.52017
C         47.53774        44.41508        -0.77708
C         47.62168        45.83867        -0.66647
C         46.62190        46.70897        -1.23797
C         47.98425        48.68109        -0.55482
C         46.94092        48.09015        -1.36364
C         47.83084        50.06478        -0.01202
C         47.02246        51.13730        -0.60063
C         47.81872        52.80836         1.02681
C         46.82278        52.35883         0.09937
C         47.83192        54.24631         1.34191
C         46.62376        55.10148         0.97414
C         47.58426        56.95933         2.45058
C         46.47963        56.42553         1.60167
C         47.79557        58.42567         2.50839
C         49.86789        44.15328        -0.08008
C         48.64311        43.61554        -0.54316
C         49.81488        45.51459         0.56553
C         48.76940        46.41424        -0.07474
C         49.85657        48.28389         1.17648
C         48.85954        47.81247         0.11661
C         50.02440        49.77300         1.25945
C         48.81979        50.55894         1.11721
C         49.96845        52.44587         2.31021
C         48.84415        51.98639         1.42831
C         50.00080        53.94129         2.49513
C         48.89920        54.71405         2.26559
C         50.01793        56.73146         3.35504
C         48.77243        56.08825         2.80757
C         50.06928        58.22073         3.49814
C         48.92480        58.99856         2.97055
C         52.29529        41.35170        -0.52578
C         51.11379        42.03877        -0.42748
C         52.34422        44.12462         0.02540
C         51.08764        43.43808        -0.13413
C         52.39029        45.49307         0.42925
C         51.15801        46.21881         0.67965
C         52.41317        48.23536         1.40117
C         51.16224        47.54398         1.03438
C         52.48056        49.70185         1.47450
C         51.24944        50.43818         1.50736
C         52.51452        52.48665         2.08265
C         51.27520        51.81596         1.87792
C         52.54445        53.83843         2.53318
C         51.29019        54.51541         2.95800
C         52.55177        56.74649         2.82537
C         51.32088        55.97710         3.27870
C         52.60340        58.16680         3.37296
C         51.40638        58.87351         3.62955
C         52.68302        60.85922         4.19891
C         51.46607        60.19683         4.09014
C         54.83830        39.89763        -0.50033
C         54.78930        41.31537        -0.57555
C         53.55103        42.02720        -0.45729
C         54.80722        44.15387        -0.33001
C         53.56481        43.43382        -0.24689
C         54.83841        45.54713         0.05068
C         53.64137        46.14941         0.52676
C         54.95866        48.26609         1.06195
C         53.72297        47.47390         1.15844
C         54.94198        49.62428         1.35656
C         53.71877        50.36706         1.56614
C         54.98281        52.48117         2.02580
C         53.74889        51.78503         1.83668
C         55.01355        53.79035         2.50941
C         53.78478        54.52631         2.72357
C         55.08175        56.64528         2.98236
C         53.80732        55.91852         2.99488
C         55.09788        58.13971         3.13520
C         53.82976        58.85017         3.45494
C         55.13045        60.97018         3.68827
C         53.88011        60.21572         3.83900
C         55.13731        62.39912         3.71539
C         57.26036        39.91134        -0.77744
C         56.03432        39.22151        -0.55761
C         57.22887        41.30919        -0.91820
C         56.01031        42.03877        -0.74936
C         57.20179        44.25115        -0.98785
C         55.98576        43.46913        -0.70285
C         57.27022        45.69046        -0.51831
C         56.06771        46.27427         0.10449
C         57.43096        48.23618         0.71867
C         56.16020        47.58364         0.62727
C         57.47940        49.53949         1.48223
C         56.22355        50.36382         1.28969
C         57.55959        52.42541         2.04978
C         56.25651        51.81091         1.66681
C         57.58923        53.70480         2.54481
C         56.31490        54.39598         2.89389
C         57.64490        56.61622         3.12771
C         56.34162        55.86958         3.22940
C         57.65967        58.11623         3.25497
C         56.35716        58.81540         3.67906
C         57.46488        61.00435         2.92739
C         56.31463        60.29834         3.38681
C         57.48093        62.44870         3.02888
C         56.28898        63.10269         3.47436
C         59.77121        37.09059        -0.87356
C         58.56229        37.78491        -0.80779
C         59.76488        39.89487        -0.96407
C         58.52559        39.18487        -0.85289
C         59.76598        41.31460        -1.08753
C         58.48410        42.01590        -1.24282
C         59.76369        44.21960        -0.95606
C         58.49268        43.53711        -1.24102
C         59.77303        45.56274        -0.47444
C         58.59871        46.28270        -0.23074
C         59.89130        48.31197         0.44297
C         58.62397        47.60212         0.34208
C         59.93163        49.67361         0.83515
C         58.73365        50.35515         1.27410
C         60.07338        52.33395         1.84396
C         58.76403        51.66653         1.71887
C         60.13606        53.77079         2.32434
C         58.88296        54.45732         2.88364
C         59.96393        56.73040         2.26876
C         58.77100        55.92197         2.48680
C         59.81668        58.18541         1.99091
C         58.71587        58.87222         2.51658
C         59.56187        61.04535         1.63228
C         58.56529        60.29214         2.38532
C         59.69906        62.56326         1.93656
C         58.66832        63.17609         2.77765
C         60.04288        65.17799         3.01701
C         58.85410        64.54078         3.18410
C         62.32150        35.68984        -0.35024
C         62.25377        36.94699        -1.18968
C         60.99370        37.76191        -0.95956
C         62.23630        39.91755        -1.14366
C         61.00190        39.17761        -1.01348
C         62.21462        41.33734        -1.21801
C         60.96668        42.04884        -1.19218
C         62.22092        44.19635        -1.20033
C         60.96805        43.48978        -1.12624
C         62.26894        45.59353        -0.83450
C         61.10146        46.13310        -0.02792
C         62.32068        48.32270         0.11496
C         61.10149        47.64217         0.10587
C         62.37988        49.71527         0.40942
C         61.17463        50.38184         0.77586
C         62.44924        52.46445         1.11001
C         61.24016        51.74369         1.16686
C         62.38486        53.89417         1.30478
C         61.27005        54.54678         1.78756
C         62.10557        56.76058         0.86724
C         61.23362        56.03675         1.85145
C         61.98816        58.23492         0.75553
C         60.87439        58.87235         1.26688
C         61.94931        61.14786         0.66003
C         60.72571        60.32946         1.02767
C         62.08413        62.51856         1.19604
C         61.04789        63.16661         1.82851
C         62.55873        65.19565         2.35748
C         61.24021        64.46116         2.53649
C         62.69192        66.64854         2.61367
C         64.70393        35.88539         0.25786
C         63.45111        35.18880         0.22162
C         64.79376        37.16524        -0.45272
C         63.53802        37.77011        -1.10198
C         64.69800        39.97387        -1.12603
C         63.48520        39.23893        -1.14757
C         64.68635        41.38458        -1.31942
C         63.43790        42.06219        -1.35765
C         64.65754        44.19813        -1.74504
C         63.41151        43.48684        -1.44540
C         64.65186        45.73696        -1.48202
C         63.45268        46.29476        -0.86128
C         64.79503        48.37859        -0.34000
C         63.59722        47.52817        -0.00657
C         64.82853        49.70276         0.07273
C         63.63554        50.41831         0.45802
C         64.96320        52.52095         0.81356
C         63.68417        51.80314         0.77906
C         64.93494        54.03299         0.91038
C         63.59983        54.69860         1.00779
C         64.40913        56.78153        -0.33059
C         63.31284        56.03199         0.36440
C         64.24894        58.26465        -0.55050
C         63.03450        58.98624        -0.00722
C         64.24624        61.19000        -0.28210
C         63.17462        60.44327         0.23221
C         64.35602        62.58237        -0.00756
C         63.42335        63.13339         1.01709
C         64.48253        65.41485         0.65742
C         63.61053        64.54437         1.49910
C         64.47675        66.88750         0.91195
C         63.61694        67.40925         2.00434
C         66.97387        33.66439         2.29542
C         65.85734        34.14522         1.60014
C         66.95490        36.31408         1.22322
C         65.81023        35.45556         1.04318
C         67.02794        37.57115         0.60005
C         65.92322        38.05550        -0.17147
C         67.15753        40.09187        -0.76655
C         65.92839        39.34707        -0.71072
C         67.16867        41.40198        -1.25574
C         65.93359        42.11035        -1.42624
C         67.19186        44.24758        -1.72116
C         65.94540        43.50028        -1.66229
C         67.17173        45.72207        -1.69397
C         65.94913        46.42371        -1.34878
C         67.09815        48.60554        -1.27745
C         65.95384        47.75685        -0.92883
C         67.23776        49.95368        -0.69630
C         66.17144        50.33267         0.32112
C         67.45483        52.39848         0.57500
C         66.13337        51.80558         0.59186
C         67.34672        54.57955         0.57614
C         66.04003        54.88294         0.34395
C         66.92563        57.12906        -0.46674
C         65.77345        56.17497        -0.34068
C         66.67913        58.45482        -1.08955
C         65.45964        59.05317        -0.92977
C         66.47261        61.34482        -1.55862
C         65.27561        60.51779        -1.12602
C         66.54833        62.75352        -1.14095
C         65.50250        63.36482        -0.42056
C         66.67543        65.58342        -0.47292
C         65.60302        64.77165        -0.06674
C         66.72929        66.98833        -0.26977
C         65.69753        67.71623         0.55963
C         66.19334        69.68431        -0.86812
C         65.32702        69.04256        -0.04871
C         69.04404        32.95515         4.31965
C         69.17566        34.03710         3.42019
C         68.05988        34.47821         2.60148
C         69.31917        36.63254         2.13803
C         67.95019        35.95465         2.30989
C         69.43583        37.87075         1.30970
C         68.24321        38.36086         0.58882
C         69.66649        40.07134        -0.52069
C         68.34519        39.47427        -0.22495
C         69.72225        41.40216        -1.25410
C         68.43040        42.05286        -1.77702
C         69.69630        44.24654        -1.84431
C         68.40088        43.56249        -1.68508
C         69.67647        45.78409        -1.88997
C         68.36470        46.43663        -1.76543
C         69.62417        48.64848        -1.58526
C         68.37775        47.90262        -1.76549
C         69.54188        50.15614        -1.73126
C         68.34295        50.72411        -0.93767
C         69.52055        52.98642        -0.76241
C         68.44951        52.04609        -0.31329
C         69.58250        54.46300        -0.50125
C         68.48210        55.18506        -0.08062
C         69.41619        57.30674        -1.09377
C         68.33490        56.62224        -0.36052
C         69.19176        58.52460        -1.68206
C         67.84364        59.14726        -1.69699
C         69.02580        61.40786        -2.01794
C         67.74758        60.64392        -1.94108
C         69.00688        62.81565        -1.89363
C         67.72713        63.51757        -1.58589
C         69.12341        65.62776        -1.11586
C         67.76986        64.97920        -1.27137
C         69.04111        67.14840        -1.17548
C         67.76723        67.78760        -0.86116
C         68.34375        69.94975        -2.07283
C         67.48149        69.12897        -1.21311
C         67.76034        70.81532        -3.02611
C         71.29757        33.31150         5.11853
C         70.09503        32.59871         5.15875
C         71.45634        34.36767         4.21592
C         70.41313        34.73760         3.36161
C         71.81814        36.57987         2.24866
C         70.55965        35.75263         2.24227
C         71.90072        37.77375         1.60381
C         70.77176        38.40169         0.96230
C         72.07619        40.28193        -0.01434
C         70.86513        39.57036         0.19416
C         72.09908        41.55076        -0.57995
C         70.95182        42.20601        -1.07986
C         72.09564        44.39453        -1.28562
C         70.94900        43.59779        -1.40172
C         72.06424        45.80191        -1.32584
C         70.88790        46.52358        -1.48905
C         71.98258        48.72867        -0.98872
C         70.82777        47.97335        -1.34541
C         71.94139        50.12848        -0.93230
C         70.81674        50.84778        -1.30303
C         72.02807        53.12191        -1.28176
C         70.79498        52.31637        -1.32637
C         71.97903        54.47257        -1.19555
C         70.74035        55.20537        -0.99751
C         71.78538        57.36145        -1.74340
C         70.67037        56.58500        -1.23342
C         71.61486        58.58690        -2.28253
C         70.25965        59.20721        -2.51778
C         71.39204        61.48483        -2.50671
C         70.23368        60.72591        -2.30132
C         71.36733        62.87520        -2.42533
C         70.19166        63.56160        -2.10163
C         71.48362        65.76175        -1.83889
C         70.15636        65.08598        -2.12975
C         71.49305        67.05034        -1.44055
C         70.25156        67.78893        -1.24996
C         70.54324        70.79759        -2.77780
C         69.75370        69.95319        -1.99151
C         69.93303        71.64880        -3.70138
C         68.54067        71.64267        -3.83128
O         59.06502        62.05358         0.71749
O         69.33971        37.90143         2.83396
O         56.28138        51.37037         0.24035
O         63.12466        58.59197        -1.42979
O         61.17508        56.53543         3.21092
O         47.64346        56.23112         3.73234
O         65.36091        61.04731        -2.47803
O         67.43017        48.52828        -2.70323
O         60.91204        60.80716        -0.33825
O         67.54578        59.70967        -3.03919
O         53.11753        47.54686         2.49055
O         47.85657        55.06361         0.11041
O         49.78334        57.35429         4.65212
O         46.72345        50.02770        -2.72735
O         64.25219        63.45989         2.21891
O         70.42609        69.16295        -1.03968
O         56.25909        54.90483         4.29653
O         44.62894        50.41648        -4.12675
O         57.02169        45.35611        -1.93570
O         63.70908        66.34447        -0.20680
O         67.69843        57.33408         0.77193
O         47.54941        49.91839         1.42728
O         69.82740        44.98195        -3.10462
O         67.65373        53.49955         1.40909
O         51.43789        55.01467         4.35439
O         58.44749        42.79323        -2.49844
O         64.92171        56.09515        -1.52445
O         64.50098        45.17732        -2.81690
O         43.32554        52.69064        -0.68186
O         67.39406        64.57093        -2.61880
O         69.75489        52.83758        -2.20215
O         64.55937        37.13917        -1.92786
O         60.50030        52.68067         3.23395
O         58.14012        57.29726         4.36754
O         62.29935        64.42742         3.56749
O         55.20045        57.57679         1.78970
O         69.94433        40.14220        -1.97694
O         42.73171        51.91596        -4.83942
O         64.48977        54.66809         2.17767
O         62.07952        56.02803        -0.41597
O         49.25558        47.89201         2.46582
H         48.44288        48.44183         2.56805
O         52.37493        56.90573         1.37359
H         53.22470        57.27179         1.03034
O         49.36424        45.23771         1.92980
H         49.29130        46.11440         2.39230
O         61.31664        45.63353         1.33765
H         62.20838        45.96127         1.61495
O         62.14312        36.47440        -2.56616
H         63.06450        36.29713        -2.86851
O         66.32239        68.01160         1.85627
H         67.12542        68.54707         1.68208
O         57.47262        49.17409         2.90108
H         58.25361        48.60732         3.07423
O         67.35869        36.50494         3.53265
H         67.78450        37.38793         3.66693
O         70.54705        34.98236         0.99364
H         71.33281        34.39650         0.99197
O         56.23473        58.72201         5.12040
H         56.90791        58.06224         5.42459
O         63.86199        46.99832         1.35859
H         64.09360        47.76339         1.92893
O         66.65436        49.70155         1.57827
H         66.21624        50.16256         2.32559
O         42.62156        54.55825        -5.07269
H         42.74971        53.65023        -5.44143
O         49.68599        51.91839         3.65513
H         50.30419        52.34918         4.28406
O         69.33377        50.42875        -3.14313
H         68.53557        49.91586        -3.41668
O         69.96778        58.98172        -3.92545
H         69.02680        59.25309        -4.06547
O         69.77785        65.49073        -3.46378
H         68.86215        65.14737        -3.61689
O         68.39866        41.78616        -3.21471
H         68.79642        40.89262        -3.33983
O         69.55494        65.25481         0.22052
H         70.41184        65.69767         0.39931
O         58.99904        54.45239         4.32681
H         59.58152        53.69716         4.56997
H         39.00131        50.78719        -4.15231
H         37.05191        52.30698        -4.18945
H         39.68236        55.71060        -3.83299
H         37.38794        54.78334        -4.04041
H         40.52645        49.53445        -4.14364
H         41.69185        56.59265        -3.70695
H         42.30401        48.04550        -3.62239
H         42.84997        57.13633        -1.65818
H         45.03154        45.25049        -1.55830
H         43.40832        46.83441        -2.46049
H         45.16150        58.11335         1.83984
H         43.44681        57.28098         0.31246
H         46.62777        43.96089        -1.19298
H         47.01108        59.06916         2.08286
H         48.58119        42.55489        -0.82583
H         49.02989        60.09256         2.91411
H         52.26589        40.27015        -0.71203
H         50.16964        41.48680        -0.52392
H         52.69182        61.89938         4.54946
H         50.53796        60.72232         4.35369
H         53.91535        39.32487        -0.34151
H         54.21944        62.94896         3.96154
H         56.02631        38.13034        -0.44234
H         56.26618        64.19879         3.53716
H         59.74550        35.99312        -0.88255
H         57.63435        37.20203        -0.74980
H         60.16109        66.21278         3.36558
H         58.01940        65.08145         3.65105
H         61.41360        35.07039        -0.31669
H         62.07950        67.07350         3.42182
H         63.37391        34.22647         0.74851
H         63.74669        68.46048         2.29946
H         66.98680        32.60483         2.59115
H         65.02801        33.45006         1.41368
H         65.93496        70.68354        -1.24629
H         64.38235        69.51706         0.25307
H         68.09010        32.41363         4.38450
H         66.67014        70.81989        -3.16020
H         72.12497        33.03550         5.78643
H         69.97481        31.76445         5.86362
H         72.41603        34.90198         4.18719
H         72.73303        36.15059         2.68243
H         72.87771        38.27676         1.55603
H         73.01569        39.87718         0.38548
H         73.05933        42.08448        -0.57884
H         73.06236        43.92349        -1.06379
H         73.00807        46.32922        -1.13214
H         72.92396        48.22104        -0.74524
H         72.85005        50.66587        -0.62276
H         72.99724        52.61279        -1.37951
H         72.91878        55.03931        -1.25511
H         72.79844        56.93645        -1.69925
H         72.49520        59.09823        -2.69653
H         72.33898        60.99715        -2.77001
H         72.29265        63.42607        -2.63802
H         72.43477        65.24588        -2.03083
H         72.43866        67.59097        -1.29128
H         71.63419        70.78662        -2.65709
H         70.54470        72.31507        -4.32453
H         68.05562        72.29657        -4.56840
