         620
 CSIRO Nanostructure Databank - Neutral Graphene Oxide Data Set
C         23.07998        27.63399         1.95484
C         23.02557        28.96677         1.62799
C         22.90713        31.76911         0.69358
C         22.89351        33.09982         0.35853
C         22.91000        35.72553        -1.05457
C         23.03164        36.84344        -1.81472
C         23.04672        40.57942        -2.09805
C         22.98746        41.85148        -1.54882
C         22.94723        44.57488        -0.46782
C         22.95302        45.91560        -0.14930
C         25.47192        24.74106         1.86717
C         24.32231        25.47296         2.09412
C         25.40414        27.44802         1.16747
C         24.26506        26.84530         1.74165
C         25.29154        28.81911         0.66064
C         24.11907        29.63249         0.99097
C         25.34982        31.69658         0.31039
C         24.11593        31.00941         0.66005
C         25.32634        33.13696         0.10597
C         24.10242        33.80070         0.07463
C         25.33505        36.03991        -0.31402
C         24.03662        35.25367        -0.23549
C         25.37212        37.30553        -1.09390
C         24.24821        37.61061        -1.82767
C         25.41529        40.34406        -1.42515
C         24.24933        39.86104        -2.05388
C         25.39048        41.73315        -1.06902
C         24.16502        42.46848        -1.07326
C         25.39467        44.53851        -0.50553
C         24.15993        43.85883        -0.66811
C         25.40578        45.94241        -0.23690
C         24.17594        46.63332        -0.05246
C         25.38921        48.71773         0.26838
C         24.19850        48.02946         0.21870
C         27.90421        23.17904         1.30024
C         27.88300        24.60258         1.21234
C         26.64870        25.34936         1.35703
C         27.85558        27.42610         0.70710
C         26.62499        26.73450         1.03311
C         27.87600        28.83430         0.47785
C         26.59233        29.54753         0.27366
C         27.83057        31.65820        -0.21163
C         26.55592        31.00450         0.24396
C         27.80475        33.16449        -0.11948
C         26.57787        33.86971        -0.08153
C         27.81006        35.98122        -0.46264
C         26.59720        35.27772        -0.24119
C         27.80320        37.41267        -0.71767
C         26.59692        38.10942        -1.05114
C         27.83611        40.25016        -0.94682
C         26.61093        39.53567        -1.18536
C         27.84704        41.68791        -0.88929
C         26.62330        42.41966        -0.83484
C         27.86774        44.54651        -0.58674
C         26.63262        43.82887        -0.63941
C         27.87585        45.95967        -0.37642
C         26.63979        46.66006        -0.17710
C         27.88645        48.78626         0.05943
C         26.63656        48.06121         0.05755
C         27.92679        50.19168         0.25204
C         30.33660        23.13258         1.12945
C         29.07809        22.46837         1.23138
C         30.33336        24.55514         1.01057
C         29.09749        25.29031         1.00542
C         30.30551        27.44312         0.67859
C         29.08916        26.72580         0.80276
C         30.32235        28.84301         0.45702
C         29.08489        29.54193         0.40665
C         30.31505        31.72380        -0.08755
C         29.06784        31.05994         0.46453
C         30.25809        33.07954        -0.35173
C         29.02288        33.84809        -0.24577
C         30.28967        35.98796        -0.43298
C         29.04053        35.26752        -0.39103
C         30.26141        37.39581        -0.47101
C         29.04335        38.11218        -0.66892
C         30.30239        40.26457        -0.71860
C         29.06208        39.54281        -0.76822
C         30.28861        41.66974        -0.83760
C         29.07961        42.40190        -0.85707
C         30.31168        44.58148        -0.78940
C         29.09784        43.84677        -0.76924
C         30.33254        45.97709        -0.55799
C         29.10464        46.67553        -0.35129
C         30.35400        48.81403        -0.16842
C         29.11286        48.09511        -0.15075
C         30.35559        50.22773         0.00997
C         29.11721        50.88589         0.22432
C         32.76936        20.27592         1.42870
C         31.62464        20.97673         1.26723
C         32.79430        23.14944         1.27600
C         31.58352        22.43043         1.22432
C         32.78897        24.55263         1.05732
C         31.57356        25.23994         0.92310
C         32.83747        27.41846         0.40789
C         31.57191        26.71780         0.84693
C         32.72518        28.79577        -0.09487
C         31.56304        29.52568         0.09059
C         32.71006        31.59331        -0.61927
C         31.54251        30.96098        -0.22730
C         32.73679        33.04023        -0.90884
C         31.46013        33.81944        -0.77176
C         32.77478        35.92786        -0.56520
C         31.53272        35.27612        -0.51992
C         32.84758        37.37272        -0.31946
C         31.51256        38.13643        -0.28820
C         32.80414        40.21091        -0.58793
C         31.56065        39.56921        -0.57967
C         32.80579        41.68489        -0.55004
C         31.56593        42.38103        -0.99324
C         32.86116        44.60690        -0.85734
C         31.58339        43.88157        -1.03602
C         32.80643        46.00981        -0.76948
C         31.58037        46.70428        -0.56497
C         32.83150        48.84625        -0.32626
C         31.58978        48.11715        -0.37032
C         32.83059        50.26839        -0.14585
C         31.59842        50.96313        -0.02050
C         32.81121        53.07864         0.05159
C         31.62356        52.38153         0.06870
C         35.40260        18.80211         1.09469
C         35.38803        20.21479         1.51425
C         34.05917        20.94335         1.69400
C         35.38536        23.16139         1.49630
C         34.05834        22.44633         1.64196
C         35.36639        24.59362         1.03331
C         34.06302        25.30726         0.87458
C         35.28772        27.28131        -0.09465
C         33.98420        26.52146        -0.05042
C         35.26210        28.64891        -0.61037
C         33.93116        29.37112        -0.73232
C         35.28330        31.55857        -1.00210
C         33.94620        30.84860        -0.93774
C         35.30597        33.01934        -0.67470
C         34.01421        33.77081        -0.65130
C         35.22545        35.94140        -0.91048
C         34.01505        35.24633        -0.76392
C         35.27535        37.37540        -0.88506
C         34.08614        38.10523        -0.62815
C         35.31519        40.25017        -0.70235
C         34.06427        39.52270        -0.60753
C         35.35052        41.68113        -0.66183
C         34.09086        42.44204        -0.54186
C         35.33335        44.55762        -0.79896
C         34.09200        43.89697        -0.83022
C         35.37241        46.01554        -0.95697
C         34.04563        46.77924        -0.92084
C         35.31310        48.86463        -0.41452
C         34.06757        48.18915        -0.52755
C         35.31373        50.28083        -0.17649
C         34.07581        50.98086        -0.11582
C         35.29626        53.13578         0.02551
C         34.06201        52.41133        -0.01967
C         35.33664        54.55646        -0.04857
C         37.84060        18.85301         0.86468
C         36.56291        18.17230         0.80508
C         37.85190        20.27135         1.02604
C         36.63357        20.99199         1.26865
C         37.86914        23.10692         1.06100
C         36.63624        22.38921         1.26302
C         37.86688        24.50061         0.68865
C         36.58441        25.09400         0.32154
C         37.80310        27.28174        -0.28141
C         36.52857        26.54050        -0.20549
C         37.75359        28.68371        -0.52449
C         36.53663        29.41207        -0.66361
C         37.77285        31.58054        -0.74418
C         36.54783        30.81409        -0.81718
C         37.76986        33.04759        -0.90368
C         36.54719        33.74823        -0.95159
C         37.73813        35.95413        -1.54163
C         36.45184        35.18153        -1.26405
C         37.73347        37.40231        -1.24997
C         36.53189        38.08779        -0.99894
C         37.77779        40.24779        -0.78214
C         36.53529        39.52901        -0.83481
C         37.79653        41.67490        -0.69860
C         36.55656        42.39944        -0.70108
C         37.78442        44.58087        -0.57585
C         36.56418        43.85145        -0.67681
C         37.80174        45.98486        -0.44945
C         36.59239        46.74482        -0.58693
C         37.85663        48.89106        -0.45487
C         36.54952        48.13794        -0.45840
C         37.76549        50.27857         0.13091
C         36.55049        50.97679         0.07988
C         37.71927        53.14511         0.39122
C         36.52665        52.42889         0.20193
C         37.75875        54.56679         0.26276
C         36.52363        55.24383         0.02633
C         40.26449        16.01443         0.56837
C         39.08712        16.70532         0.65072
C         40.30840        18.84810         0.75731
C         39.05989        18.13709         0.74976
C         40.32832        20.26268         0.85736
C         39.09415        20.98384         0.98904
C         40.37492        23.16374         1.20956
C         39.08909        22.39850         1.04972
C         40.33478        24.56849         0.65007
C         39.06663        25.22359         0.44639
C         40.24377        27.38276         0.10904
C         39.00665        26.59503         0.01246
C         40.31340        28.72569        -0.51791
C         39.00070        29.42801        -0.76526
C         40.23924        31.60261        -0.43086
C         38.98409        30.89454        -0.69877
C         40.23986        33.12442        -0.62129
C         38.98969        33.75530        -1.04120
C         40.34792        35.90066        -1.41228
C         39.02682        35.16008        -1.50042
C         40.33634        37.40409        -1.37564
C         38.99831        38.14914        -1.30093
C         40.23467        40.22214        -0.61382
C         39.01703        39.55456        -0.85652
C         40.21315        41.63601        -0.40692
C         39.02814        42.36398        -0.56979
C         40.27959        44.54116        -0.12051
C         39.09698        43.86238        -0.77665
C         40.24984        45.92869         0.14804
C         39.02092        46.68930        -0.06771
C         40.12227        48.75622         0.72901
C         38.99287        48.05960         0.10059
C         40.15197        50.23324         0.73995
C         38.97290        50.93294         0.55028
C         40.21907        53.06737         0.62727
C         38.89844        52.39866         0.95888
C         40.25962        54.53209         0.33804
C         38.99384        55.28908         0.31472
C         40.29556        57.36215         0.21359
C         39.08200        56.70127         0.25560
C         42.73816        15.99746         0.48048
C         41.52097        16.70147         0.55907
C         42.78629        18.81891         0.62164
C         41.53703        18.12454         0.63930
C         42.79362        20.23858         0.71976
C         41.59031        20.96234         0.81589
C         42.82225        23.09494         0.57968
C         41.61730        22.39785         0.82445
C         42.81085        24.52436         0.40635
C         41.55449        25.22102         0.46019
C         42.80995        27.37830        -0.00569
C         41.56811        26.68118         0.34665
C         42.78775        28.78784        -0.20374
C         41.56020        29.50081        -0.34221
C         42.75563        31.63897        -0.42584
C         41.53904        30.89509        -0.44461
C         42.75522        33.07887        -0.52048
C         41.54552        33.80817        -0.74290
C         42.76833        35.93225        -0.77036
C         41.56246        35.19678        -0.93362
C         42.75369        37.37404        -0.75771
C         41.53832        38.10298        -0.89370
C         42.71930        40.17720        -0.36555
C         41.50385        39.49791        -0.62425
C         42.72464        41.56871         0.10239
C         41.41958        42.33554         0.07268
C         42.67679        44.48099         0.40095
C         41.46838        43.81915         0.09257
C         42.68133        45.88529         0.55826
C         41.45009        46.58227         0.52097
C         42.69831        48.72963         1.06400
C         41.41942        47.99192         0.94461
C         42.70959        50.12753         1.15206
C         41.42322        50.88425         1.18253
C         42.74751        53.13421         1.07372
C         41.44655        52.38758         1.16219
C         42.75554        54.54815         0.59279
C         41.54575        55.25225         0.44345
C         42.78527        57.33912         0.22221
C         41.54713        56.66126         0.28291
C         43.95117        16.67889         0.44312
C         45.27251        18.80305         0.34053
C         44.00532        18.08274         0.49182
C         45.30439        20.20391         0.41381
C         44.10211        20.95618         0.92065
C         45.26774        23.08203         0.24015
C         44.06990        22.39976         0.49118
C         45.26334        24.51300         0.06546
C         44.02084        25.22272         0.15596
C         45.24629        27.36088        -0.21212
C         44.01562        26.65559        -0.02933
C         45.24739        28.78407        -0.29426
C         44.01565        29.50607        -0.29213
C         45.23458        31.63850        -0.39124
C         43.99170        30.92848        -0.38666
C         45.22946        33.07207        -0.37346
C         43.99118        33.78461        -0.46278
C         45.18545        35.95750        -0.38572
C         43.98061        35.22528        -0.52508
C         45.18503        37.35106        -0.48420
C         43.97720        38.08314        -0.61621
C         45.17745        40.26811        -0.37487
C         43.97491        39.52220        -0.49097
C         45.18438        41.67405        -0.08871
C         43.97789        42.32451         0.14971
C         45.20012        44.49934         0.50996
C         43.93527        43.70724         0.74895
C         45.18051        45.87390         0.70791
C         43.92452        46.60057         0.83294
C         45.16795        48.67151         1.56671
C         43.91669        47.97397         1.07871
C         45.18882        50.16111         1.23158
C         43.96380        50.83472         1.14358
C         45.24822        52.95635         0.54483
C         44.00148        52.32075         1.07310
C         45.25629        54.45170         0.33526
C         43.98666        55.23045         0.44687
C         43.97686        56.62628         0.25589
C         47.67490        18.78516        -0.07559
C         46.48109        18.11010         0.06397
C         47.73026        20.20053        -0.01415
C         46.51749        20.91878         0.19373
C         47.72639        23.05030        -0.09393
C         46.52047        22.35706         0.14219
C         47.72784        24.48194        -0.25243
C         46.47776        25.20782        -0.17960
C         47.67729        27.35529        -0.54152
C         46.47139        26.63756        -0.29712
C         47.71463        28.76134        -0.50862
C         46.48420        29.49854        -0.36204
C         47.71189        31.65531        -0.19166
C         46.45192        30.91564        -0.34452
C         47.69822        33.12334        -0.30677
C         46.46901        33.78244        -0.31035
C         47.71572        35.98242        -0.26283
C         46.43597        35.24280         0.03815
C         47.71092        37.35186        -0.25194
C         46.46246        38.07880        -0.54308
C         47.72562        40.30352        -0.28217
C         46.46316        39.58060        -0.54435
C         47.69811        41.72460        -0.18631
C         46.44392        42.41369        -0.01817
C         47.67681        44.53210         0.26566
C         46.43502        43.79879         0.24579
C         47.68052        45.91946         0.55915
C         46.42997        46.61807         0.77301
C         47.69743        48.62762         1.41631
C         46.43002        47.95052         1.15453
C         47.70009        50.18885         1.47656
C         46.43386        50.87909         1.19733
C         47.73500        52.96098         0.81154
C         46.50885        52.24621         0.84843
C         47.70435        54.39782         0.65327
C         46.56237        55.11182         0.48084
C         50.22167        20.23220        -0.19726
C         48.97612        20.91760        -0.14193
C         50.20292        23.04975        -0.36101
C         48.97049        22.33642        -0.20032
C         50.19541        24.47038        -0.54649
C         48.93364        25.15005        -0.52740
C         50.18059        27.32565        -1.11272
C         48.88627        26.58130        -0.87398
C         50.15110        28.79285        -0.96430
C         48.97956        29.45833        -0.67603
C         50.20425        31.71700        -0.70233
C         49.01803        30.90978        -0.37230
C         50.17122        33.08765        -0.63698
C         48.94933        33.83566        -0.38922
C         50.16291        36.01406        -0.54823
C         48.95277        35.24485        -0.37468
C         50.18000        37.37418        -0.35038
C         48.95263        38.11474         0.10600
C         50.15565        40.31473        -0.22730
C         48.94108        39.59867        -0.22742
C         50.17309        41.73730        -0.27380
C         48.92309        42.44146        -0.18102
C         50.14158        44.57322         0.05255
C         48.91661        43.86266         0.01803
C         50.15835        45.93019         0.42171
C         48.92362        46.61139         0.67298
C         50.17218        48.69358         1.13373
C         48.95450        47.97931         1.06179
C         50.18846        50.12880         1.24485
C         48.97714        50.86504         1.22131
C         50.24191        52.93390         0.93812
C         48.97913        52.26798         0.98654
C         51.41169        20.91743        -0.26265
C         52.67256        23.06612        -0.37320
C         51.43925        22.33864        -0.33672
C         52.65658        24.45323        -0.57877
C         51.43658        25.17112        -0.69833
C         52.65612        27.31074        -1.03481
C         51.47083        26.61402        -0.91572
C         52.69704        28.76570        -1.31976
C         51.40018        29.52556        -1.28441
C         52.73196        31.69235        -0.86598
C         51.43644        31.02415        -1.15857
C         52.71753        33.13342        -0.76359
C         51.41997        33.81943        -0.97328
C         52.69734        36.01814        -0.74771
C         51.41215        35.31165        -0.91193
C         52.68747        37.38829        -0.62967
C         51.45454        38.09716        -0.27895
C         52.67037        40.35229        -0.45127
C         51.44350        39.60446        -0.18433
C         52.65904        41.74875        -0.37086
C         51.41081        42.43613        -0.29578
C         52.68011        44.56682         0.05780
C         51.40941        43.92773        -0.45148
C         52.65601        45.91436         0.47420
C         51.40897        46.61903         0.61280
C         52.65124        48.66936         1.18467
C         51.40843        47.98633         0.96214
C         52.66744        50.09658         1.27420
C         51.44792        50.82370         1.20617
C         51.42049        52.24694         1.09089
C         55.14101        23.00905        -0.31311
C         53.95065        22.40256        -0.13154
C         55.22107        24.39859        -0.90364
C         53.96999        25.19640        -0.43474
C         55.25768        27.33115        -0.92794
C         53.94705        26.58845        -1.02737
C         55.25144        28.80125        -0.75324
C         54.00270        29.54266        -1.07177
C         55.09349        31.66359        -0.14389
C         53.90187        30.97750        -0.70703
C         55.10373        33.19317        -0.00882
C         53.88854        33.86058        -0.60437
C         55.16425        35.99197        -0.53925
C         53.93202        35.29139        -0.68002
C         55.20010        37.40897        -0.63047
C         53.93543        38.12645        -0.82312
C         55.19285        40.33518        -0.54589
C         53.91693        39.64685        -0.75763
C         55.16195        41.75044        -0.38404
C         53.92433        42.46203        -0.33140
C         55.15081        44.54400         0.21098
C         53.90873        43.86154        -0.04196
C         55.13322        45.88094         0.66923
C         53.88245        46.57720         0.82314
C         55.08549        48.59071         1.80667
C         53.86090        47.92821         1.22171
C         55.11123        50.06041         1.46204
C         53.96292        50.75161         1.28418
C         57.73187        24.50987        -0.18777
C         56.47213        25.19224        -0.50070
C         57.65143        27.29880         0.06735
C         56.44667        26.55886        -0.48526
C         57.66039        28.79110        -0.17989
C         56.40958        29.46767        -0.42444
C         57.66128        31.66039        -0.19377
C         56.39018        30.92055        -0.12834
C         57.64772        33.08863        -0.69430
C         56.39889        33.87087        -0.40531
C         57.66514        35.99615        -0.51515
C         56.41598        35.25273        -0.48741
C         57.65364        37.42041        -0.50816
C         56.40779        38.14300        -0.57681
C         57.64009        40.30625        -0.46522
C         56.39716        39.58994        -0.54030
C         57.62075        41.73774        -0.45977
C         56.41068        42.46197        -0.33588
C         57.60879        44.58310         0.14141
C         56.40021        43.87347        -0.03769
C         57.60422        45.88556         0.72413
C         56.36773        46.55518         0.97035
C         57.59612        48.46251         1.85256
C         56.37957        47.86905         1.50512
C         58.90503        25.17304        -0.11828
C         60.12205        27.40657         0.18594
C         58.95035        26.65577        -0.40778
C         60.05229        28.74677         0.33713
C         58.83440        29.49493         0.02545
C         60.08678        31.69603        -0.19850
C         58.85648        30.95703        -0.12735
C         60.09926        33.08093        -0.27556
C         58.91745        33.84834        -0.40136
C         60.10676        36.03773        -0.31857
C         58.90145        35.27562        -0.41873
C         60.09689        37.41060        -0.32909
C         58.88178        38.15537        -0.42103
C         60.10306        40.33807        -0.37658
C         58.87281        39.58713        -0.41839
C         60.12843        41.69136        -0.49980
C         58.89014        42.45879        -0.61402
C         60.12495        44.67587         0.12330
C         58.88632        44.00521        -0.28832
C         60.08738        45.86033         0.78138
C         58.83581        46.53061         1.05476
C         58.81118        47.80440         1.63573
O         40.48390        48.21697         2.05779
O         32.22782        37.77834         0.94383
O         46.56585        38.82591        -1.82509
O         32.49823        27.32797         1.82210
O         32.00607        33.44615        -2.10136
O         33.34460        42.18319         0.72976
O         40.83696        27.36140         1.44404
O         58.89276        43.48602        -1.65078
O         24.48468        36.09946         0.88318
O         51.26054        30.39409        -2.46883
O         34.88493        25.52742         2.05711
O         53.53082        29.19823        -2.42372
O         34.77656        20.40694         2.84455
O         51.60823        38.76268         1.07232
O         34.53846        31.24892        -2.22068
O         41.24361        51.69594         2.42535
O         31.63806        43.07113        -2.28600
O         47.71593        49.36826         2.69185
O         25.72853        28.93219        -0.74022
O         39.87514        35.35820        -2.68807
O         36.88418        35.52759        -2.64538
O         39.74942        37.98597        -2.57107
O         24.28320        38.65353        -2.76772
O         40.33644        53.47480        -0.75594
O         48.50187        31.19329         0.97972
O         41.89714        41.75683         1.34712
O         34.64662        33.32947         0.61828
O         51.32816        34.60698        -2.21145
O         36.42393        25.35210        -1.10515
O         53.87215        38.93758        -2.06295
O         34.43713        28.64487        -1.89875
O         40.11352        32.50733         0.72388
O         55.57616        31.08470         1.13407
O         39.79772        28.81993        -1.87844
O         49.39006        26.83439        -2.24674
O         34.74682        46.50750        -2.18781
O         34.75317        23.01490         2.79855
O         54.73960        26.83049        -2.22812
O         43.54063        52.98874         2.30393
O         45.17773        53.49853        -0.80940
O         51.40960        44.17293        -1.91655
H         51.45560        45.14409        -2.04773
O         27.96159        31.32294        -1.62624
H         27.10120        31.48797        -2.06534
O         44.27961        21.00896         2.39457
H         45.13943        21.44953         2.56612
O         57.61259        27.13406         1.51478
H         56.79861        27.56551         1.84888
O         45.10901        48.59528         3.02798
H         45.97371        48.93952         3.36083
O         46.37240        35.25079         1.51668
H         47.19497        34.83440         1.85283
O         54.12268        25.42544         1.00158
H         54.12958        24.54808         1.44145
O         59.02015        26.81558        -1.85102
H         59.80129        26.32278        -2.17651
O         28.97783        31.40127         1.87582
H         29.76676        31.03993         2.33158
O         38.69458        52.43220         2.39612
H         39.48344        52.00087         2.81309
O         39.37651        44.00449        -2.22358
H         38.61656        43.61996        -2.71100
O         54.92893        48.52019         3.26996
H         54.08004        48.95832         3.49311
O         38.19539        49.10822        -1.88067
H         38.02259        48.26725        -2.35638
O         33.65615        26.03622        -1.37751
H         33.88268        26.76092        -2.01031
O         43.87446        43.49204         2.20228
H         43.09947        42.89779         2.35824
O         54.95394        33.49726         1.41922
H         55.33202        32.72346         1.90473
O         40.50031        23.35518         2.67591
H         41.28382        23.92482         2.83333
O         49.00168        38.09406         1.58171
H         49.91589        38.39040         1.82458
O         55.21312        24.22200        -2.33202
H         55.21741        25.12353        -2.73791
O         57.62857        32.92291        -2.18316
H         58.49385        32.53450        -2.43795
H         22.21116        27.15187         2.42557
H         22.11313        29.53198         1.86350
H         21.96025        31.27188         0.94262
H         21.94222        33.64933         0.36313
H         22.01563        35.09309        -1.14997
H         22.21601        37.16348        -2.47730
H         22.16949        40.13303        -2.58348
H         22.04005        42.40449        -1.57949
H         21.98397        44.05353        -0.54823
H         22.00534        46.44880         0.01355
H         25.48264        23.67716         2.13922
H         23.43845        24.99199         2.53666
H         25.36421        49.79660         0.47002
H         23.24776        48.55871         0.37660
H         26.96030        22.62807         1.40755
H         26.99900        50.75272         0.42273
H         29.03542        21.37353         1.30014
H         29.08974        51.97197         0.38006
H         32.73033        19.17848         1.46640
H         30.68785        20.42003         1.13010
H         32.77731        54.17331         0.12742
H         30.68653        52.94782         0.14453
H         34.46001        18.23808         1.09031
H         34.41080        55.12317        -0.21350
H         36.53128        17.10942         0.53159
H         36.51188        56.33562        -0.08954
H         40.26046        14.91656         0.50788
H         38.14584        16.14074         0.65960
H         40.31413        58.45872         0.13859
H         38.16224        57.30154         0.22927
H         42.72494        14.89911         0.43601
H         42.79956        58.43136         0.10088
H         44.87538        16.09106         0.36764
H         44.92358        57.16997         0.13604
H         48.58744        18.20436        -0.26235
H         46.48492        17.01582        -0.02116
H         48.64789        54.95334         0.73738
H         46.61520        56.20930         0.46910
H         50.24785        19.13553        -0.15834
H         50.28468        54.02113         0.79449
H         52.35066        20.34926        -0.28537
H         52.36231        52.81092         1.07147
H         56.06225        22.43592        -0.13649
H         53.93638        21.36526         0.23286
H         56.07266        50.59443         1.46191
H         54.01474        51.83711         1.11995
H         57.72450        23.41891        -0.05202
H         57.60510        49.45841         2.31664
H         59.84605        24.62672         0.05222
H         61.05796        26.86803         0.40248
H         60.92811        29.29997         0.70714
H         61.04354        31.16152        -0.13046
H         61.07306        33.58818        -0.21961
H         61.07265        35.52088        -0.24103
H         61.05858        37.93495        -0.25779
H         61.06006        39.80500        -0.30581
H         61.09069        42.21755        -0.56022
H         61.08889        44.22593        -0.15096
H         61.02180        46.36279         1.07161
H         59.75642        48.29197         1.91392
