         634
 CSIRO Nanostructure Databank - Neutral Graphene Oxide Data Set
C         23.14340        69.99442        -1.45920
C         23.18278        71.38832        -1.70905
C         22.02844        72.10554        -2.12642
C         23.30683        74.16521        -2.28095
C         22.10271        73.47169        -2.39929
C         25.44344        65.73821        -0.42048
C         25.46144        67.17083        -0.55816
C         24.28608        67.87742        -0.86765
C         25.52341        70.00690        -0.86390
C         24.29826        69.28581        -1.06402
C         25.58368        71.40423        -1.12227
C         24.41775        72.09629        -1.56236
C         25.73203        74.16129        -1.76459
C         24.48944        73.49381        -1.86508
C         27.87084        61.44106        -0.12775
C         27.80930        62.82734         0.00644
C         26.62718        63.58419        -0.19693
C         27.92299        65.73516        -0.47068
C         26.61330        64.99924        -0.27316
C         27.90941        67.20266        -0.06594
C         26.67646        67.89831        -0.33243
C         27.88133        70.04023        -0.13515
C         26.68933        69.32301        -0.40758
C         27.98108        71.40143        -0.51335
C         26.82546        72.09000        -0.99846
C         28.15946        74.12786        -1.30780
C         26.90413        73.48103        -1.35504
C         30.40842        57.20321        -0.41348
C         30.35752        58.57663        -0.16960
C         29.13783        59.31951        -0.24104
C         30.32790        61.40357         0.25831
C         29.10314        60.70595        -0.01765
C         30.30097        62.80938         0.79169
C         29.02588        63.56401         0.44051
C         30.39198        65.79275         0.10329
C         29.08695        65.02929         0.17669
C         30.21366        67.06860         0.94509
C         29.03006        67.86505         0.39385
C         30.33781        70.03885         0.38416
C         28.99732        69.37196         0.62928
C         30.43033        71.35669        -0.08783
C         29.24543        72.07264        -0.48320
C         30.59663        74.06512        -0.98655
C         29.33227        73.43430        -0.92008
C         32.66971        52.77759         0.52833
C         32.72259        54.27214         0.26881
C         31.65102        54.97836        -0.15239
C         32.69848        57.15940         0.53710
C         31.72971        56.47072        -0.44261
C         32.81195        58.63121         0.21037
C         31.58461        59.31824         0.07558
C         32.81171        61.46788         0.33226
C         31.55738        60.73422         0.22653
C         32.80436        62.85617         0.43367
C         31.57436        63.59284         0.49914
C         32.83018        65.72053         0.66181
C         31.59617        64.97574         0.48842
C         32.80269        67.11596         0.92518
C         31.52416        67.84503         1.05808
C         32.87026        69.99971         0.70705
C         31.55117        69.35500         0.84728
C         32.90563        71.38618         0.28167
C         31.70941        72.03061        -0.14700
C         33.03768        74.03382        -0.73606
C         31.78092        73.38392        -0.62364
C         35.23596        48.51702         0.26692
C         35.22002        49.92195         0.22230
C         34.00491        50.67195         0.32154
C         35.24368        52.76118         0.27811
C         33.99556        52.05603         0.33355
C         35.28309        54.22301         0.23798
C         34.02240        54.95516         0.52726
C         35.26061        57.15840         0.17390
C         34.04238        56.44270         0.57890
C         35.27735        58.55485         0.08542
C         34.03441        59.30996         0.17054
C         35.28223        61.43857         0.05440
C         34.06528        60.75038         0.14747
C         35.33672        62.85740         0.29161
C         34.05620        63.63004         0.10236
C         35.25847        65.70516         0.95654
C         34.06168        65.03656         0.63566
C         35.24705        67.09853         1.18238
C         34.02335        67.82483         1.06884
C         35.29961        69.99389         1.16631
C         34.02128        69.27593         1.00385
C         35.34321        71.48201         0.77445
C         34.13319        72.08325         0.21823
C         35.49727        74.05503        -0.40488
C         34.22328        73.39927        -0.33395
C         37.72600        44.25871         0.54892
C         37.69967        45.66687         0.37908
C         36.48430        46.38999         0.38004
C         37.69383        48.52171         0.06531
C         36.45572        47.79917         0.24424
C         37.68751        49.92127        -0.02546
C         36.46680        50.63405         0.13310
C         37.72350        52.81878         0.45690
C         36.44784        52.05023         0.22108
C         37.70726        54.15665        -0.32512
C         36.43857        54.91118        -0.00055
C         37.73867        57.08778        -0.10737
C         36.43154        56.38015        -0.35483
C         37.72961        58.50792        -0.05483
C         36.51259        59.24099        -0.09773
C         37.81074        61.38033         0.13942
C         36.54422        60.72253        -0.35048
C         37.85534        62.89139         0.19513
C         36.51908        63.52201         0.52659
C         37.81634        65.58373         1.41206
C         36.50445        64.90084         1.07799
C         37.83278        67.07611         1.51274
C         36.51663        67.82497         1.45332
C         37.78815        69.93448         1.06283
C         36.56887        69.26755         1.16375
C         37.81894        71.34807         0.71881
C         36.65086        72.06590         0.46507
C         37.95595        74.07787        -0.10915
C         36.68864        73.42026        -0.03646
C         40.23861        39.93983         0.76961
C         40.19714        41.35880         0.55498
C         38.96510        42.07346         0.54621
C         40.11763        44.18052         0.06816
C         38.93016        43.49281         0.40786
C         40.23325        45.64728         0.38112
C         38.93400        46.40318         0.22458
C         40.18711        48.54016         0.02410
C         38.93637        47.78163         0.05425
C         40.20092        49.90063        -0.01621
C         38.95646        50.67549        -0.37404
C         40.24988        52.80617         0.45188
C         38.97599        52.06944         0.17721
C         40.19281        54.26710         0.04264
C         38.98709        54.93638        -0.07214
C         40.19783        57.09393        -0.09716
C         38.95782        56.37666        -0.10186
C         40.18037        58.51382        -0.07336
C         38.97761        59.21322         0.01411
C         40.25790        61.31723         0.45614
C         38.97215        60.65960         0.19384
C         40.28555        62.72453         0.70720
C         39.00466        63.39313         1.09985
C         40.23349        65.61380         0.79035
C         39.08850        64.90611         1.07390
C         40.26262        67.06735         0.85454
C         39.07521        67.78586         1.13871
C         40.27413        69.89769         0.92720
C         39.03909        69.19940         1.07356
C         40.26686        71.33723         0.89467
C         39.08826        72.02672         0.64394
C         40.40432        74.08385         0.19954
C         39.13035        73.43376         0.27358
C         42.73163        35.68332         1.01239
C         42.69507        37.07629         0.78174
C         41.46752        37.78777         0.79587
C         42.72266        39.90953         0.69259
C         41.42680        39.19635         0.72156
C         42.69414        41.41886         0.44540
C         41.39716        42.04482         0.22958
C         42.65576        44.17487        -0.48620
C         41.33384        43.43012        -0.22946
C         42.69553        45.65112        -0.38775
C         41.36031        46.36877        -0.37571
C         42.67842        48.50186        -0.44242
C         41.49400        47.79044         0.16944
C         42.59155        49.97392        -0.69404
C         41.52089        50.62167         0.18458
C         42.64526        52.79952        -0.28877
C         41.47845        52.10814        -0.05280
C         42.66602        54.25112        -0.23403
C         41.44476        54.96793        -0.08915
C         42.68556        57.09700        -0.21121
C         41.43973        56.38805        -0.15173
C         42.71387        58.52067        -0.18272
C         41.43672        59.28866        -0.37009
C         42.72813        61.25826         0.74177
C         41.44102        60.63524         0.28950
C         42.70428        62.76637         0.63978
C         41.48568        63.44524         0.56670
C         42.76005        65.62425        -0.02156
C         41.37989        64.88250         0.09534
C         42.74152        67.06599         0.46788
C         41.50178        67.77302         0.64788
C         42.68306        70.02682         0.36719
C         41.47899        69.19151         0.73360
C         42.76489        71.25031         1.31458
C         41.48741        72.11967         1.30270
C         42.81970        74.14633         0.59543
C         41.58228        73.46372         0.60622
C         45.20853        32.88713         1.29874
C         43.99110        33.56679         1.28893
C         45.17912        35.65864         0.77408
C         43.94539        34.96384         1.03371
C         45.14955        37.02809         0.48654
C         43.93731        37.76966         0.49969
C         45.13516        39.90888         0.02376
C         43.95606        39.18349         0.35432
C         45.16493        41.31786        -0.05008
C         43.94294        42.08421         0.01380
C         45.15634        44.14806        -0.61618
C         43.90880        43.43536        -0.28084
C         45.12666        45.62717        -0.85555
C         43.86274        46.34891        -0.55229
C         45.12149        48.54096        -0.60378
C         43.88048        47.82027        -0.54539
C         45.14029        49.95730        -0.61601
C         43.91363        50.69490        -0.59627
C         45.14227        52.81475        -0.54481
C         43.90723        52.08499        -0.49480
C         45.13804        54.23688        -0.51374
C         43.89801        54.94815        -0.36037
C         45.14550        57.08802        -0.38919
C         43.90778        56.37488        -0.29919
C         45.15456        58.51996        -0.22379
C         43.92251        59.21637        -0.13325
C         45.20107        61.32305         0.42775
C         43.91702        60.72681        -0.07637
C         45.16726        62.67548         1.09224
C         43.94265        63.49271         0.68975
C         45.30301        65.57988         0.43716
C         43.96547        64.85887         0.52441
C         45.22903        67.08056         0.68204
C         43.98944        67.74731         0.53763
C         45.27214        69.94769         0.76909
C         43.99951        69.22958         0.41354
C         45.21647        71.38414         1.08709
C         44.03019        72.05860         1.08491
C         45.27391        74.17921         0.81812
C         44.02913        73.50618         0.91790
C         46.41536        33.55109         1.06572
C         47.65913        35.63643         0.63374
C         46.44193        34.94419         0.79819
C         47.69438        37.04469         0.39467
C         46.39451        37.68881         0.05185
C         47.72134        39.84034        -0.44944
C         46.36638        39.14219        -0.29901
C         47.62072        41.34150        -0.34599
C         46.43534        42.00974        -0.25907
C         47.66347        44.24989        -0.52045
C         46.42100        43.51412        -0.09117
C         47.67219        45.63072        -0.63935
C         46.42288        46.42126        -1.01069
C         47.63382        48.55861        -0.64477
C         46.38701        47.77903        -0.30512
C         47.63047        49.94408        -0.67033
C         46.38190        50.68071        -0.60915
C         47.61098        52.83672        -0.74955
C         46.37727        52.09642        -0.62456
C         47.59128        54.22606        -0.84897
C         46.36337        54.96411        -0.68487
C         47.58343        57.19325        -0.95123
C         46.34250        56.38509        -0.63871
C         47.60431        58.57489        -0.33375
C         46.38445        59.24487        -0.13122
C         47.66000        61.33565         0.39116
C         46.39542        60.64376         0.25547
C         47.65818        62.75309         0.73281
C         46.46555        63.42609         0.97305
C         47.68055        65.62671         1.35294
C         46.34825        64.89518         1.33777
C         47.71249        67.07680         1.14194
C         46.46693        67.78767         0.93153
C         47.72412        69.92833         1.26292
C         46.49797        69.19102         1.05207
C         47.71807        71.31555         1.37144
C         46.44937        72.09799         1.55443
C         47.73226        74.16602         0.92182
C         46.49680        73.52423         1.04983
C         48.81974        37.81989         0.58244
C         50.06245        40.03107         0.45865
C         48.73317        39.33077         0.60294
C         50.15297        41.34776         0.02580
C         48.93124        42.02824        -0.48900
C         50.17451        44.26914        -0.27163
C         48.94344        43.53544        -0.55541
C         50.14136        45.68122        -0.34152
C         48.90576        46.34020        -0.62747
C         50.18974        48.55520        -0.69822
C         48.87580        47.79703        -0.84620
C         50.11002        50.01031        -0.48537
C         48.87904        50.68661        -0.65485
C         50.09964        52.79760        -0.64942
C         48.87262        52.10650        -0.69763
C         50.18699        54.20857        -1.17322
C         48.82742        54.99658        -1.28953
C         50.08627        57.17763        -0.64577
C         48.81391        56.37033        -0.52770
C         50.05577        58.54625        -0.52376
C         48.82288        59.26672        -0.26810
C         50.11873        61.38045         0.09420
C         48.85665        60.66560         0.08099
C         50.12094        62.78260         0.42319
C         48.92885        63.43916         0.76691
C         50.21298        65.62010         0.94482
C         48.97882        64.85058         1.17207
C         50.20131        67.03026         1.08768
C         48.95442        67.75590         1.18542
C         50.21298        69.89086         1.31895
C         48.98858        69.19763         1.25530
C         50.23857        71.33673         1.37635
C         48.96916        72.08285         1.68889
C         50.17289        74.16453         0.99633
C         48.96385        73.50210         1.14801
C         51.35593        42.10372         0.07863
C         52.57058        44.25067         0.22579
C         51.39664        43.53355        -0.02370
C         52.53172        45.72419         0.51420
C         51.35582        46.42540        -0.12476
C         52.56824        48.54314         0.07369
C         51.39504        47.81337        -0.26283
C         52.50446        49.98491         0.18151
C         51.29175        50.72182        -0.20962
C         52.60115        52.83054        -0.44431
C         51.31539        52.12866        -0.36419
C         52.62760        54.23111        -0.59976
C         51.33832        54.94887        -0.51531
C         52.65058        57.11317        -0.59877
C         51.35277        56.43636        -0.47742
C         52.62404        58.57882        -0.73843
C         51.31009        59.32248        -0.65920
C         52.58158        61.41085        -0.14585
C         51.32572        60.73258        -0.22575
C         52.58131        62.78324         0.21326
C         51.37977        63.49171         0.45606
C         52.66523        65.62077         0.72290
C         51.40887        64.90208         0.71644
C         52.66481        67.05824         0.87434
C         51.45253        67.74890         1.03623
C         52.68941        69.87915         1.25056
C         51.46804        69.18391         1.20914
C         52.71541        71.34517         1.60620
C         51.41794        72.04593         1.32119
C         52.63187        74.17201         1.02342
C         51.42680        73.48999         1.15924
C         53.82364        46.46429         0.30013
C         55.07147        48.60211         0.13274
C         53.83356        47.84810         0.21790
C         55.11967        49.97701        -0.02216
C         53.87991        50.77440         0.09304
C         55.06708        52.76216        -0.96089
C         53.82079        52.11948        -0.41440
C         55.06338        54.26408        -0.76870
C         53.86948        54.95460        -0.63593
C         55.10650        57.15203        -0.66706
C         53.84335        56.42226        -0.63599
C         55.10990        58.56301        -0.54215
C         53.87453        59.31360        -0.49580
C         55.10822        61.46319        -0.52072
C         53.82857        60.68895        -0.33751
C         55.14284        62.74270         0.27006
C         53.85815        63.46661         0.50285
C         55.15082        65.66180         0.40453
C         53.86197        64.92669         0.63893
C         55.13751        67.07426         0.90867
C         53.93692        67.75556         0.96923
C         55.15108        69.91957         1.02187
C         53.93517        69.20227         1.13463
C         55.13508        71.37145         0.91238
C         53.92901        72.07696         1.10398
C         55.09896        74.18512         0.71042
C         53.89575        73.48677         0.96225
C         56.33122        50.73204        -0.16876
C         57.53036        52.85788        -0.41805
C         56.33692        52.09266        -0.46983
C         57.57861        54.24539        -0.62198
C         56.34421        54.98039        -1.11162
C         57.56190        57.11469        -0.59970
C         56.33636        56.44328        -0.73643
C         57.58615        58.53435        -0.45181
C         56.35885        59.25803        -0.45157
C         57.59752        61.34864        -0.18615
C         56.37625        60.66687        -0.32337
C         57.60653        62.77445         0.13349
C         56.43960        63.46482         0.28745
C         57.68057        65.61453         0.83457
C         56.39396        64.87375         0.75467
C         57.68740        67.08656         0.86597
C         56.42082        67.76944         1.32738
C         57.60451        69.90016         0.74757
C         56.40752        69.23437         0.97493
C         57.60823        71.35369         0.34209
C         56.32275        72.07923         0.64843
C         57.57599        74.19686         0.40048
C         56.32148        73.49683         0.59101
C         58.77933        54.96636        -0.49694
C         60.03314        57.09642        -0.50550
C         58.81890        56.38194        -0.56461
C         60.08051        58.50959        -0.48300
C         58.82382        59.24493        -0.42592
C         60.08470        61.40882        -0.62293
C         58.82260        60.64255        -0.32119
C         60.14719        62.78783        -0.02369
C         58.91005        63.42379         0.55724
C         60.16063        65.63653         0.40262
C         58.85870        64.91499         0.19761
C         60.14494        67.04360         0.57063
C         58.87704        67.76384         0.75827
C         60.08469        69.93331         0.75660
C         58.87816        69.22219         0.77563
C         60.10006        71.36573         0.69898
C         58.79633        72.09615         0.94643
C         60.03487        74.20830         0.30733
C         58.79312        73.54857         0.50806
C         61.30419        59.21698        -0.44467
C         62.55824        61.35315        -0.40205
C         61.36304        60.62924        -0.43118
C         62.58360        62.78567        -0.31172
C         61.32613        63.48569        -0.04123
C         62.57862        65.64323         0.12327
C         61.35800        64.92799         0.21930
C         62.57822        67.06132         0.28676
C         61.35935        67.74386         0.56260
C         62.60001        69.92266         0.45529
C         61.38907        69.19208         0.97337
C         62.57824        71.38387         0.56470
C         61.27774        72.08958         0.56455
C         62.45472        74.20811        -0.06437
C         61.25783        73.52254         0.32942
C         63.76752        63.51431        -0.35786
C         64.97140        65.67782        -0.37417
C         63.79858        64.94197        -0.19443
C         64.97924        67.10257        -0.29352
C         63.78891        67.79920         0.07202
C         64.95520        69.96775        -0.30715
C         63.77299        69.24284         0.11859
C         64.95302        71.37362        -0.40529
C         63.81632        72.14798         0.12013
C         64.80309        74.20564        -0.84852
C         63.66558        73.56263        -0.27760
C         66.13812        67.83706        -0.65176
C         67.24122        69.97112        -1.22843
C         66.12407        69.24309        -0.71664
C         67.19656        71.34415        -1.40107
C         66.03758        72.07181        -0.99275
C         67.13610        74.20055        -1.66291
C         65.96409        73.50506        -1.15669
C         68.36752        72.05021        -2.04659
C         68.25645        73.54636        -2.03090
O         48.43587        65.16161         2.52587
O         51.94810        59.07110        -1.96791
O         63.54813        71.91622         1.54532
O         51.19005        55.58018         0.79479
O         34.16063        55.63961         1.84241
O         49.10049        42.66013        -1.78857
O         57.04255        65.06054         2.06284
O         37.03565        64.94262         2.47498
O         42.85604        40.85122         1.80646
O         31.43927        68.74246         2.21518
O         35.22416        71.05533         2.17417
O         28.72925        64.54763         1.49943
O         44.87470        69.68315        -0.67210
O         54.58077        62.71299         1.61345
O         53.16783        50.55113         1.34695
O         37.19177        67.53933         2.73905
O         41.84944        43.68633        -1.62778
O         46.21194        38.13597        -1.36110
O         45.07889        44.66273        -1.98173
O         49.67811        48.19516        -2.01991
O         37.73196        53.19723         1.88040
H         36.96615        53.79449         2.03552
O         52.83629        71.38993         3.08015
H         51.96619        71.13011         3.45367
O         33.99395        63.80373        -1.36869
H         34.01644        62.90677        -1.76737
O         48.99510        72.21113         3.15886
H         48.06182        72.36232         3.45090
O         56.43066        54.95361        -2.58134
H         56.24785        54.01927        -2.85038
O         46.32901        43.74489         1.35753
H         46.99363        43.18107         1.80664
O         41.24289        72.49197         2.70779
H         40.37584        72.94984         2.74600
O         40.41064        52.81262         1.94003
H         39.52589        53.06948         2.30695
O         32.08825        57.10083         1.84314
H         32.65529        56.51239         2.39818
O         37.66960        53.85588        -1.73694
H         37.28008        54.64041        -2.18952
O         45.83071        64.98608         2.69971
H         46.61889        64.94079         3.29135
O         38.75580        62.94876         2.45431
H         38.03695        63.52546         2.82314
O         28.71142        69.57146         2.06468
H         29.55243        69.38127         2.54421
O         42.92040        70.65796         2.62583
H         42.43201        71.23091         3.26294
O         42.94943        60.82803         2.11167
H         42.32166        61.30560         2.69298
O         55.07600        52.55020        -2.43695
H         54.22662        52.90445        -2.77971
O         36.60492        60.91869        -1.84304
H         37.35801        60.37448        -2.16281
O         30.31346        62.65023         2.24395
H         29.89886        63.46847         2.60907
O         42.08334        50.15007        -2.06568
H         42.65253        49.62364        -2.66698
O         46.27275        72.20920         3.02908
H         45.41547        72.66284         3.18447
O         46.55961        46.73269        -2.41369
H         46.33781        45.91410        -2.91351
O         29.87952        66.65565         2.28478
H         30.04860        67.41821         2.88078
O         48.17376        39.71356         1.90988
H         48.77801        39.37685         2.60473
O         42.47150        70.49537        -0.97898
H         43.35164        70.47186        -1.42631
O         58.58460        65.00323        -1.23222
H         59.23018        64.43050        -1.69954
O         41.84043        47.72615         1.57411
H         41.91762        48.66213         1.89063
O         36.27770        56.35742        -1.85020
H         36.15597        57.28957        -2.13578
O         59.03567        63.25663         1.99038
H         58.25546        63.69778         2.40788
O         48.59399        56.07422         0.87164
H         49.46763        55.81540         1.26015
O         45.01568        62.41933         2.53365
H         45.14295        63.29886         2.97165
O         31.64311        52.15745        -0.24965
H         31.92469        52.15855        -1.18708
O         38.19480        63.35650        -1.15638
H         37.61042        62.85960        -1.77715
O         40.96153        46.45800        -1.76302
H         41.07527        45.56070        -2.15652
O         32.29566        56.62455        -1.78147
H         31.64396        56.28039        -2.42725
O         55.11126        61.89477        -1.92296
H         55.10026        61.09157        -2.48558
O         38.99490        50.79244        -1.85069
H         39.93830        50.72775        -2.12959
O         28.14213        65.71781        -1.92611
H         27.40102        66.20991        -2.34071
O         41.90156        50.47129         1.58793
H         41.42264        51.18443         2.08364
O         61.56302        69.18952         2.44321
H         62.44721        68.81091         2.63626
O         43.71974        61.24406        -1.42578
H         44.40047        60.84670        -2.00844
O         41.35881        59.56088        -1.82464
H         41.43885        58.69771        -2.28373
O         59.99969        61.65537        -2.08700
H         60.90675        61.86790        -2.39658
O         56.44209        67.68482         2.79306
H         56.55936        66.73004         3.01427
O         58.60405        72.08259         2.38531
H         59.42566        72.40600         2.80993
O         40.87274        64.75016        -1.27703
H         40.03258        64.22764        -1.25531
O         48.61018        55.21002        -2.70640
H         49.49680        55.22122        -3.14197
O         30.67138        66.22392        -1.25392
H         29.86915        66.07326        -1.81317
O         50.71278        54.02681        -2.53565
H         50.26312        53.24870        -2.93044
O         57.79455        71.37968        -1.10687
H         57.02401        70.93620        -1.51901
O         47.55458        57.50750        -2.36673
H         47.65972        56.65941        -2.86459
O         48.27200        39.54863        -1.74468
H         47.69640        38.85692        -2.15183
O         40.57378        45.60443         1.80067
H         39.77659        45.31210         2.29076
O         55.25741        65.77113        -1.07185
H         54.45989        66.24278        -1.39427
O         69.60352        71.63176        -1.44329
H         69.58438        71.89441        -0.50038
O         43.09552        65.77723        -1.44141
H         42.34378        65.39390        -1.95763
O         46.40127        47.49638         1.12856
H         46.21539        48.33082         1.60827
O         52.27319        45.80625         1.99248
H         52.38830        46.74783         2.24712
O         45.77284        65.41990        -0.92894
H         45.00431        65.64655        -1.51031
H         23.35059        75.23934        -2.51088
H         25.79311        75.22984        -2.01912
H         28.23546        75.18280        -1.61008
H         30.66201        75.10348        -1.34326
H         33.07459        75.06099        -1.12736
H         35.53270        75.08990        -0.77593
H         37.99634        75.11972        -0.46012
H         40.44872        75.10534        -0.20844
H         42.84179        75.20107         0.28069
H         45.28239        75.23600         0.51049
H         47.75362        75.22644         0.62289
H         50.17827        75.22544         0.70080
H         52.61893        75.26235         0.87485
H         55.08094        75.28237         0.63252
H         57.54849        75.27835         0.19362
H         60.03080        75.27916         0.04988
H         62.37184        75.27693        -0.31514
H         64.75402        75.28577        -1.05389
H         67.09702        75.29974        -1.70862
H         22.19601        69.45080        -1.59205
H         21.07371        71.57163        -2.23595
H         21.19877        74.00860        -2.72036
H         24.46973        65.22523        -0.42155
H         23.34583        67.32499        -1.01115
H         26.96017        60.88840        -0.40428
H         25.67443        63.04542        -0.31965
H         29.48612        56.66534        -0.68609
H         28.20065        58.78655        -0.46072
H         32.37308        52.64046         1.60676
H         30.70756        54.44496        -0.35697
H         34.28772        47.96578         0.35461
H         33.05134        50.12892         0.40177
H         36.77966        43.72813         0.72924
H         35.53549        45.84555         0.49905
H         39.28424        39.40623         0.89398
H         38.03064        41.53172         0.75160
H         41.78900        35.14964         1.20574
H         40.52777        37.22730         0.91286
H         45.22058        31.80625         1.49916
H         43.05456        33.02352         1.47955
H         47.36167        32.99181         1.08879
H         48.60649        35.09628         0.78229
H         49.76139        37.33766         0.89110
H         50.96565        39.52755         0.84019
H         52.28118        41.58700         0.37655
H         53.50091        43.70378         0.44370
H         54.77303        45.91282         0.37441
H         56.01160        48.03005         0.11512
H         57.28887        50.22497         0.02761
H         58.46112        52.34041        -0.13337
H         59.71280        54.41896        -0.29151
H         60.97893        56.53341        -0.48676
H         62.24547        58.64618        -0.41264
H         63.51751        60.81249        -0.40284
H         64.71763        62.99010        -0.54250
H         65.90242        65.15894        -0.64707
H         67.04303        67.29262        -0.95983
H         68.14342        69.41882        -1.53004
H         68.42790        71.72273        -3.12438
H         69.13510        74.11104        -2.37704
