         260
 CSIRO Nanostructure Databank - Neutral Graphene Oxide Data Set
C         30.39273        31.56993         0.47990
C         30.38896        32.73895         0.05061
C         30.34611        35.94292         0.18267
C         30.41293        37.09937         0.68237
C         30.87834        39.86876         2.24490
C         31.10887        40.75981         3.12336
C         33.03315        29.11801         1.66262
C         31.91129        29.59168         1.46817
C         32.86732        31.69462         0.60690
C         31.59804        30.97040         1.08311
C         32.75304        32.88070        -0.36781
C         31.42945        33.67467        -0.23777
C         32.72531        35.80182         0.15533
C         31.40362        35.03751        -0.12999
C         32.65834        37.32555        -0.13045
C         31.52614        37.97985         0.68787
C         32.93032        40.06922         1.09967
C         31.71592        39.19043         1.34116
C         33.19006        41.27831         2.00078
C         32.27498        41.50958         3.19933
C         34.00899        42.98947         4.10331
C         32.89267        42.42285         4.07479
C         35.69380        27.57448         1.22712
C         35.62065        29.03067         1.43494
C         34.35895        29.84581         1.66819
C         35.45377        31.76139         0.40735
C         34.18593        30.88967         0.50727
C         35.33160        33.12262        -0.19088
C         33.98856        33.75984        -0.35055
C         35.06879        35.87651        -1.11310
C         33.93419        35.11110        -0.43921
C         35.04321        37.36987        -0.75585
C         34.02952        37.95725         0.23135
C         35.46576        40.11143         0.37734
C         34.01583        39.51984         0.14604
C         35.52782        41.42309         1.15472
C         34.55395        41.91047         1.97791
C         36.10239        43.90317         2.73465
C         34.84289        43.11239         2.88575
C         36.87136        44.77334         3.63702
C         38.04935        27.36718         0.74462
C         36.66419        26.88694         0.90250
C         38.02011        28.83678         0.36698
C         36.85665        29.66168         0.78300
C         37.83604        31.62236        -0.38048
C         36.75766        31.03484         0.24332
C         37.84669        33.13778        -0.59106
C         36.45555        33.70247        -1.02440
C         37.59820        35.90555        -1.33287
C         36.45522        35.23407        -1.03051
C         37.73178        37.28495        -1.98346
C         36.09767        38.25914        -1.31127
C         37.84879        40.45139        -1.18083
C         36.33801        40.26024        -1.24463
C         38.09207        41.86867        -0.90966
C         36.88908        42.00771         1.30984
C         38.41518        44.14156         1.33484
C         37.08522        43.47574         1.61880
C         39.00102        45.05915         2.41912
C         37.97549        45.28276         3.44039
C         40.40408        24.35329         0.04853
C         39.47887        25.13475         0.32021
C         40.48878        27.32347         0.02309
C         39.29857        26.58021         0.55658
C         40.28901        28.64091        -0.61671
C         39.09075        29.44856        -0.24514
C         40.22901        31.51678        -1.03749
C         39.07284        30.87490        -0.58130
C         40.22103        32.88849        -1.69924
C         38.90380        33.66800        -1.57309
C         40.15847        35.93939        -1.37194
C         38.87679        35.16213        -1.66309
C         40.12665        37.43646        -1.71064
C         38.94224        38.14230        -1.59289
C         40.23316        40.31787        -1.46687
C         38.91885        39.59259        -1.36525
C         40.52771        41.59592        -0.68626
C         39.27088        42.37381        -0.39706
C         40.55286        44.39937         0.04339
C         39.43361        43.64642         0.31883
C         40.75660        45.74609         0.66652
C         40.20968        45.86645         2.09014
C         41.57166        47.79615         2.27614
C         40.56715        47.16203         2.69018
C         42.91430        24.27120        -0.72326
C         41.83403        24.51091         0.12908
C         42.93891        27.38679        -0.47153
C         41.75488        26.80108         0.12993
C         42.86882        28.69424        -0.92945
C         41.56305        29.37941        -1.03342
C         42.69883        31.58118        -0.99255
C         41.50800        30.85436        -1.05550
C         42.67872        33.06591        -0.97085
C         41.40571        33.76255        -1.28491
C         42.71270        35.91846        -1.39143
C         41.44881        35.18373        -1.84681
C         42.72673        37.38280        -1.65703
C         41.43469        38.10966        -1.92829
C         42.79212        40.32730        -2.00966
C         41.45677        39.61069        -1.92124
C         42.76586        41.85118        -2.01588
C         41.50550        42.49478        -1.44872
C         42.65352        44.81893        -1.42135
C         41.49242        43.94154        -1.02722
C         42.69253        46.29472        -1.02726
C         41.77398        46.74476         0.12257
C         43.56375        48.28824         0.68792
C         42.30850        47.81452         1.09174
C         43.79892        25.24860        -0.63827
C         45.46613        27.19569        -1.03488
C         44.15007        26.55895        -0.60895
C         45.42137        28.78494        -0.84772
C         44.10695        29.49229        -1.02322
C         45.05952        31.69699        -0.34185
C         43.95637        30.94647        -0.76227
C         45.10229        33.12246        -0.45498
C         43.99061        33.77764        -1.24101
C         45.10320        36.02871        -0.78187
C         43.87247        35.27812        -1.04697
C         45.15232        37.38513        -0.93035
C         43.90299        38.21530        -1.12309
C         45.38041        40.34405        -1.77210
C         44.07368        39.56511        -1.85202
C         45.40154        41.87616        -1.87525
C         44.05467        42.65183        -2.03721
C         44.92372        44.96981        -2.32411
C         43.93287        44.16721        -1.83765
C         45.05284        46.45573        -2.18918
C         43.95863        47.11849        -1.37419
C         44.14620        48.20591        -0.42535
C         47.58179        27.51010         0.22340
C         46.66470        26.77887        -0.21230
C         47.70956        28.89338         0.44033
C         46.40661        29.51051         0.06169
C         47.25036        31.81728         0.88697
C         46.17846        30.99511         0.31054
C         47.20412        33.18939         0.79962
C         46.17116        33.85355         0.03223
C         47.30540        36.08733         0.46312
C         46.39183        35.26971        -0.46757
C         47.41972        37.55055         0.19355
C         46.45635        38.10437        -0.83757
C         47.79656        40.25885        -0.85893
C         46.55877        39.53183        -1.26218
C         47.76996        41.78684        -0.81434
C         46.60811        42.59344        -1.28625
C         47.90085        44.86799        -1.27801
C         46.87576        43.88528        -1.68619
C         47.50398        46.14136        -1.82202
C         46.48141        46.78722        -2.05571
C         49.57386        29.13336         2.25602
C         48.69246        29.66418         1.20316
C         48.97773        31.81629         2.76961
C         48.40425        31.13694         1.53175
C         48.87063        33.33918         2.77600
C         48.06570        34.00939         1.70611
C         49.50562        36.19926         1.87350
C         48.41305        35.39686         1.22446
C         49.65842        37.70199         1.57675
C         48.65029        38.34178         0.63067
C         50.06088        40.35688        -0.07875
C         48.88143        39.60800        -0.12434
C         50.07844        41.79457         0.05630
C         48.82032        42.38871        -0.01292
C         50.20710        44.79507        -0.04564
C         48.79786        44.62733        -0.24933
C         50.27715        29.75259         3.06566
C         50.92031        32.06415         4.21455
C         50.00602        31.06915         3.65237
C         50.78943        33.29009         4.28100
C         49.90391        34.20084         3.55041
C         51.32295        36.44415         3.51175
C         50.14988        35.61628         3.14993
C         51.41979        37.63233         3.16637
C         50.99127        38.35015         2.00696
C         52.16842        40.66774         1.83939
C         51.55539        39.43618         1.41564
C         51.99652        41.85801         1.54705
C         51.43679        42.55988         0.32753
C         51.06801        44.00219         0.36043
O         43.49080        39.73131        -3.15126
O         35.70924        40.70384        -2.17566
O         42.09639        45.89048        -2.26670
O         38.23964        33.73906         0.61214
O         38.61121        34.33583        -2.85038
O         40.58585        40.29061        -2.88727
O         35.03924        38.13636        -2.03643
O         34.85613        44.38696         2.19809
O         41.84495        33.64628         0.09088
O         48.58206        38.53531         2.09821
O         49.75951        35.42436         0.64913
O         37.18577        44.58261         0.65861
O         48.64067        31.21010         4.05992
O         46.97353        38.42957        -2.15714
O         37.36592        37.34175        -3.17460
O         32.30809        31.91586         1.92450
O         32.52390        41.42160         0.70422
O         48.33215        41.05039        -1.95974
O         36.67854        29.50505         2.27874
O         46.08877        44.33951        -2.76009
O         44.11613        47.35029        -2.78656
O         35.55195        32.94988         1.24808
O         45.70529        41.03577        -3.01121
O         40.36741        46.86654        -0.20431
O         47.54329        33.86236         3.06961
O         40.66429        28.74692        -2.01839
O         51.24708        39.62697         0.03888
O         46.61973        37.04438         1.31520
O         40.82267        43.46181        -2.25868
O         42.25789        37.58207        -3.03137
O         45.70967        29.97101         1.28166
O         37.86188        41.25900         1.49518
O         49.38323        30.75689         0.49753
O         38.89612        27.02657         1.88046
O         49.26013        35.29910         4.22856
O         45.11694        29.35841        -2.14548
O         41.97946        25.68814         0.95647
O         43.30128        42.36121        -3.25391
O         40.32023        44.64370         2.85246
O         48.41024        43.56384         0.62270
O         34.73313        35.77331        -2.52052
H         35.41886        36.25716        -3.03932
O         43.51058        38.63222         0.22572
H         43.56253        37.85948         0.82959
O         40.41113        32.56174        -3.09076
H         40.47685        33.40852        -3.59418
O         44.28901        33.57410        -2.64607
H         45.12013        34.05375        -2.85522
O         32.37979        37.47552        -1.51699
H         32.57264        38.40679        -1.78311
O         34.46467        30.55495         2.87458
H         35.14772        30.14540         3.44742
O         41.19902        41.21703         0.54370
H         40.52240        40.97299         1.21079
O         45.71186        26.90110        -2.39049
H         45.59939        27.72869        -2.91525
O         34.32224        37.58892         1.57265
H         35.22901        37.90257         1.79838
O         32.84571        35.65668         1.58371
H         33.08106        34.73155         1.80899
O         36.95809        42.60477        -0.92727
H         37.13988        43.56902        -0.78286
O         41.43953        35.07561        -3.27709
H         41.69366        35.95712        -3.65112
O         36.27337        39.19179         1.12321
H         37.09519        39.67573         1.40448
O         32.77921        32.27606        -1.69268
H         32.92714        32.98006        -2.36117
O         47.08848        35.12910        -1.73740
H         47.95058        34.68692        -1.58467
O         34.14653        30.12487        -0.70975
H         33.71557        30.67200        -1.41146
O         40.18806        35.94192         0.08630
H         39.62677        35.19168         0.42981
O         33.54248        39.88013        -1.15656
H         33.32014        40.83877        -1.15201
O         36.17217        33.27307        -2.36361
H         36.84411        33.67975        -2.96522
O         52.30412        42.31669        -0.74676
H         52.46290        41.35054        -0.81743
