         638
 CSIRO Nanostructure Databank - Neutral Graphene Oxide Data Set
C         22.94431        69.82263         0.11473
C         22.94970        71.19182        -0.21476
C         21.75243        71.85930        -0.60618
C         22.97187        73.94223        -0.78406
C         21.77060        73.20487        -0.90188
C         25.20401        65.49499         1.11873
C         24.94497        66.74287         0.55914
C         23.95854        67.72534         0.77026
C         25.39102        69.83628         0.35440
C         24.12561        69.09845         0.35813
C         25.36948        71.24253         0.24064
C         24.17452        71.93159        -0.10814
C         25.37913        74.19831        -0.20588
C         24.15254        73.33449        -0.38331
C         27.85583        61.30593         0.38180
C         27.83641        62.81019         0.28094
C         26.57250        63.49853         0.73699
C         27.77429        65.65989         1.26664
C         26.51009        64.84859         0.91351
C         27.95079        67.06708         0.74857
C         26.84031        67.84129         0.31017
C         27.85502        69.92675         1.16811
C         26.66593        69.18229         0.58152
C         27.89899        71.33979         0.63062
C         26.57808        72.07456         0.63825
C         27.85935        74.02986        -0.24072
C         26.66327        73.42171        -0.03727
C         30.28506        57.07246        -0.17532
C         30.28719        58.45059        -0.03230
C         29.08351        59.18644         0.18291
C         30.29857        61.39232        -0.11701
C         29.03209        60.60307         0.17241
C         30.39557        62.61094         0.82416
C         29.08221        63.38865         0.95601
C         30.38486        65.59619         1.06828
C         29.09674        64.86178         1.21230
C         30.38864        66.99841         1.04998
C         29.14952        67.74102         0.98449
C         30.35626        69.86199         0.87562
C         29.15624        69.17724         0.95501
C         30.35063        71.36119         1.04335
C         29.08359        71.99877         0.50329
C         30.31599        74.08609         0.06414
C         29.12539        73.39729         0.09477
C         32.74025        52.71905        -0.11417
C         32.71593        54.15174        -0.19228
C         31.53036        54.86570        -0.27087
C         32.79020        57.03421        -0.19974
C         31.51723        56.33283        -0.61463
C         32.78928        58.46502        -0.07225
C         31.55946        59.18356        -0.06615
C         32.79191        61.30291         0.02502
C         31.57142        60.58373        -0.00512
C         32.76480        62.78191         0.01619
C         31.56797        63.49873         0.46751
C         32.86309        65.59466         0.72321
C         31.59568        64.86779         0.72865
C         32.87522        67.03876         0.87845
C         31.60586        67.75012         0.90457
C         32.87453        69.84611         0.46766
C         31.58489        69.13937         0.80663
C         32.82779        71.34971         0.56578
C         31.61970        72.03965         0.59148
C         32.79549        74.12694         0.11156
C         31.59264        73.44119         0.29820
C         35.21605        48.41607        -0.14440
C         35.13519        49.81460        -0.28371
C         33.95045        50.56430        -0.11061
C         35.20158        52.70632        -0.27357
C         33.93254        51.98573        -0.18741
C         35.20664        54.16063        -0.22655
C         33.98667        54.87197        -0.19895
C         35.27519        56.98258         0.20122
C         33.96722        56.30166        -0.12016
C         35.25335        58.48442         0.04024
C         34.02590        59.18751         0.01756
C         35.28054        61.33522         0.20815
C         34.02668        60.62132         0.03574
C         35.30686        62.71138         0.39513
C         34.10815        63.51511         0.19309
C         35.33758        65.57027         0.87254
C         34.07776        64.91025         0.64821
C         35.32279        67.01679         1.12271
C         34.06062        67.73778         0.98050
C         35.35711        69.91909         0.70167
C         34.08019        69.23938         1.18345
C         35.30940        71.32265         0.41512
C         34.06019        72.03807         0.39450
C         35.27356        74.14599         0.02810
C         34.04965        73.45713         0.19617
C         37.78565        44.21858         0.49772
C         37.73361        45.63354         0.41920
C         36.53374        46.31612         0.20579
C         37.67869        48.42473        -0.26920
C         36.46456        47.72231        -0.08904
C         37.71436        49.78611        -0.75630
C         36.33465        50.56637        -0.70206
C         37.71480        52.69697        -0.24074
C         36.38129        52.01522        -0.47010
C         37.66130        54.17930        -0.50895
C         36.45465        54.85412        -0.38126
C         37.72480        57.03655        -0.30368
C         36.40937        56.35215        -0.59646
C         37.72116        58.42363        -0.03393
C         36.48502        59.16528         0.07779
C         37.75799        61.26062         0.38903
C         36.52143        60.58600         0.24479
C         37.80437        62.69913         0.55208
C         36.53114        63.38379         0.96820
C         37.79835        65.59791         0.69925
C         36.54686        64.88630         0.81545
C         37.83184        67.01714         0.64887
C         36.63076        67.79007         0.99034
C         37.78290        69.89272         0.27536
C         36.57193        69.23173         0.64711
C         37.75841        71.32167         0.10499
C         36.51772        72.02783         0.18468
C         37.73757        74.14906        -0.14967
C         36.50896        73.45865         0.01025
C         40.22989        39.98811         0.93597
C         40.18883        41.34086         0.59521
C         39.00366        42.09313         0.64851
C         40.26755        44.20424         0.39553
C         38.99860        43.50730         0.50713
C         40.35420        45.69055         0.68470
C         38.99235        46.40131         0.60180
C         40.18080        48.51829        -0.24101
C         38.94877        47.83370         0.16225
C         40.15668        49.91433        -0.41039
C         38.94816        50.56644        -0.64718
C         40.18363        52.75461        -0.78092
C         38.87353        52.02714        -0.98753
C         40.14489        54.17588        -0.83157
C         38.90150        54.88033        -0.68648
C         40.17998        56.97109        -0.49982
C         38.92099        56.29598        -0.50220
C         40.20101        58.36331        -0.00917
C         38.94935        59.13815         0.10871
C         40.27909        61.21775         0.64157
C         38.97208        60.51576         0.33537
C         40.26086        62.71840         0.39936
C         38.98706        63.41604         0.44510
C         40.19591        65.57520         0.16549
C         39.00575        64.87203         0.46030
C         40.20305        66.97762         0.06747
C         39.01738        67.71050         0.29855
C         40.21546        69.83806        -0.12549
C         39.00770        69.16051         0.15242
C         40.18000        71.28159        -0.39804
C         38.94829        72.03252        -0.16627
C         40.21979        74.16573        -0.23971
C         38.96951        73.46183        -0.22130
C         42.73942        35.86574         1.96676
C         42.71590        37.22558         1.61749
C         41.48831        37.92184         1.39641
C         42.71329        39.99353         0.88688
C         41.46278        39.27082         1.04367
C         42.71467        41.35423         0.52953
C         41.43228        41.99697         0.04913
C         42.69309        44.16848         0.03187
C         41.44351        43.49656         0.21554
C         42.66560        45.57416        -0.50068
C         41.41770        46.33457        -0.18072
C         42.68304        48.50237         0.06762
C         41.42760        47.76708        -0.57524
C         42.70854        49.94747        -0.32637
C         41.42198        50.70089        -0.10127
C         42.64390        52.78719        -0.78247
C         41.40029        52.09115        -0.66589
C         42.62390        54.18836        -0.93743
C         41.38358        54.88043        -0.91256
C         42.57981        57.06598        -1.19912
C         41.35190        56.31094        -0.85696
C         42.62848        58.49012        -0.79481
C         41.47699        59.11015        -0.07374
C         42.73690        61.27492        -0.04025
C         41.39442        60.61079        -0.21610
C         42.73703        62.66748         0.54079
C         41.43982        63.39353         0.26614
C         42.70522        65.61036         0.20283
C         41.46456        64.82986        -0.19720
C         42.71659        66.96973         0.05290
C         41.46061        67.67619        -0.41032
C         42.68743        69.87113        -0.05581
C         41.47245        69.16709        -0.15390
C         42.72954        71.31457        -0.08334
C         41.50263        72.05495        -0.42612
C         42.69572        74.18384        -0.02626
C         41.45899        73.51583        -0.20852
C         45.20708        33.16732         2.80173
C         43.99258        33.81291         2.56437
C         45.19730        35.89927         2.09745
C         43.96202        35.18642         2.20934
C         45.19278        37.27770         1.74081
C         43.95539        37.94507         1.49988
C         45.17765        40.03586         1.02536
C         43.94778        39.32339         1.14598
C         45.16755        41.41565         0.68756
C         43.92618        42.08062         0.45898
C         45.16228        44.20782         0.01321
C         43.91351        43.49177         0.13415
C         45.17137        45.62049        -0.19809
C         43.94371        46.35777        -0.23050
C         45.17083        48.47431        -0.45003
C         43.94957        47.74780        -0.23463
C         45.16208        49.88677        -0.67531
C         43.89060        50.62196        -0.63030
C         45.10381        52.76705        -1.07953
C         43.89176        52.06016        -0.79102
C         45.15078        54.16364        -1.22802
C         43.91928        54.96149        -0.83702
C         45.11481        57.05274        -1.39822
C         43.83632        56.29972        -1.60330
C         45.17876        58.42548        -0.90279
C         43.92704        59.16885        -0.56577
C         45.13833        61.42861        -0.67776
C         43.88264        60.64857        -0.39083
C         45.16650        62.80668        -0.05370
C         43.97987        63.45321         0.23679
C         45.21076        65.62389         0.30395
C         43.95538        64.89020         0.67349
C         45.19049        67.03532         0.25048
C         43.94574        67.73294         0.17083
C         45.16849        69.85533         0.20901
C         43.94560        69.14910         0.10447
C         45.18938        71.34072         0.46962
C         43.90122        72.03496         0.10711
C         45.17137        74.16388         0.12983
C         43.91731        73.47880         0.05497
C         46.41652        33.85248         2.69726
C         47.65314        35.94702         2.23232
C         46.43937        35.22852         2.34402
C         47.66943        37.31375         1.87689
C         46.42340        37.98922         1.62449
C         47.64631        40.07688         1.13091
C         46.42117        39.36461         1.26043
C         47.63833        41.45011         0.75716
C         46.40270        42.12742         0.55091
C         47.63023        44.22511         0.11313
C         46.39043        43.51725         0.21637
C         47.62070        45.60025        -0.23340
C         46.40898        46.32349        -0.32003
C         47.60151        48.47602        -0.75170
C         46.39907        47.75768        -0.53358
C         47.61492        49.86811        -0.98840
C         46.36548        50.55235        -0.99005
C         47.60005        52.70522        -1.71762
C         46.30971        51.97396        -1.40299
C         47.59422        54.17417        -1.62286
C         46.38350        54.85484        -1.52895
C         47.61190        57.01304        -1.08533
C         46.39116        56.36900        -1.79475
C         47.67791        58.52071        -1.15431
C         46.37905        59.27578        -1.27294
C         47.62453        61.40659        -0.72610
C         46.39911        60.57448        -0.42626
C         47.70047        62.72945         0.00774
C         46.41170        63.50190        -0.02400
C         47.66269        65.62790         0.08381
C         46.42725        64.91368         0.13874
C         47.66474        67.04730         0.20437
C         46.42100        67.75843         0.20932
C         47.66677        69.90142         0.24159
C         46.41005        69.17469         0.21880
C         47.68142        71.30301         0.13051
C         46.38647        72.00952        -0.20971
C         47.64384        74.15822         0.11933
C         46.40701        73.49769         0.06628
C         48.88149        38.03837         1.76451
C         50.11010        40.11213         1.27144
C         48.89687        39.40085         1.39633
C         50.14607        41.47089         0.85329
C         48.87489        42.17238         0.63202
C         50.16251        44.29870         0.48446
C         48.86360        43.53381         0.33831
C         50.17336        45.65627        -0.17426
C         48.88833        46.26530        -0.57617
C         50.14960        48.50119        -0.56897
C         48.87408        47.73789        -0.86094
C         50.09889        49.90193        -1.12866
C         48.89550        50.53954        -1.28088
C         50.12612        52.70272        -1.14419
C         48.94083        51.97164        -1.82109
C         50.17207        54.19683        -1.40712
C         48.90589        54.88413        -1.73457
C         50.17399        57.09047        -1.25223
C         48.90717        56.38342        -1.55226
C         50.13587        58.48169        -1.13425
C         48.87952        59.19056        -1.12889
C         50.14586        61.37628        -0.67381
C         48.91176        60.67955        -1.02330
C         50.14268        62.79424        -0.52651
C         48.90324        63.51871        -0.40357
C         50.10155        65.63398        -0.18941
C         48.89324        64.91691        -0.17553
C         50.12783        66.99136         0.34657
C         48.87887        67.76137         0.33184
C         50.13460        69.89985         0.44137
C         48.90464        69.18656         0.36920
C         50.13637        71.30437         0.33139
C         48.89930        72.01102         0.17055
C         50.11801        74.14162         0.14887
C         48.89072        73.46011         0.12338
C         51.35196        42.11297         0.60587
C         52.62794        44.26975         0.20619
C         51.36567        43.47714        -0.02304
C         52.61480        45.63985         0.00379
C         51.35314        46.30683        -0.35540
C         52.62779        48.48306        -0.62497
C         51.39909        47.68386        -0.99380
C         52.62917        49.85661        -0.88632
C         51.42788        50.47938        -1.62173
C         52.64377        52.72007        -0.99226
C         51.45270        52.06925        -1.63782
C         52.56545        54.19300        -0.65399
C         51.34553        54.90940        -1.20721
C         52.63827        57.07427        -1.05669
C         51.39513        56.35430        -1.21779
C         52.65408        58.49735        -1.03766
C         51.39398        59.29227        -1.26763
C         52.65973        61.34505        -0.58269
C         51.37778        60.56281        -0.40613
C         52.64384        62.78351        -0.15987
C         51.36778        63.49587        -0.50171
C         52.67225        65.71351        -0.40170
C         51.34696        64.95369        -0.52593
C         52.67949        67.08178         0.10783
C         51.44033        67.70955         0.56865
C         52.68393        69.91422         0.45410
C         51.41717        69.20791         0.88392
C         52.63871        71.34911         0.36200
C         51.38640        72.03255         0.33122
C         52.59739        74.16481         0.17970
C         51.35948        73.45348         0.21414
C         53.79052        46.42703         0.12283
C         54.96814        48.57920         0.12364
C         53.80276        47.82045        -0.12286
C         54.99522        49.96790        -0.11296
C         53.81497        50.60474        -0.65709
C         55.15347        52.73085        -0.86512
C         53.81806        52.03260        -0.80047
C         55.06116        54.23178        -0.77269
C         53.88698        54.92085        -0.84051
C         55.09342        57.10617        -0.89571
C         53.88024        56.37988        -0.92852
C         55.09662        58.53611        -0.87776
C         53.85346        59.22112        -0.90351
C         55.10898        61.40843        -0.72944
C         53.84581        60.67778        -0.75721
C         55.11780        62.80702        -0.64473
C         53.90586        63.54353        -0.48926
C         55.16286        65.66025        -0.23216
C         53.92505        64.93456        -0.38972
C         55.11722        67.05475         0.08569
C         53.90595        67.76181         0.23099
C         55.13525        69.94026         0.21219
C         53.88829        69.22308         0.36527
C         55.11122        71.38228         0.17900
C         53.85627        72.08030         0.26206
C         55.09035        74.32491         0.23513
C         53.81610        73.50791         0.20464
C         56.12542        50.73730         0.26787
C         57.26681        52.89751         0.50673
C         56.20762        52.13748         0.05307
C         57.24428        54.40193         0.44926
C         56.40625        54.91382        -0.73085
C         57.52719        57.08522        -0.50868
C         56.34681        56.41470        -0.69327
C         57.62126        58.51741        -0.95049
C         56.32598        59.27356        -0.81012
C         57.61152        61.39789        -0.67254
C         56.34636        60.67067        -0.77157
C         57.64164        62.78823        -0.63538
C         56.38766        63.57676        -0.93752
C         57.62775        65.65888        -0.18848
C         56.38335        64.97153        -0.35912
C         57.62929        67.05012         0.03936
C         56.37843        67.75596         0.48391
C         57.59253        69.90608         0.00725
C         56.35420        69.23289         0.17373
C         57.55233        71.35570        -0.26550
C         56.31432        72.10409         0.00005
C         57.57433        74.21874         0.03137
C         56.36358        73.52690         0.04129
C         58.59897        55.07899         0.42088
C         59.94091        57.12499         0.11032
C         58.71700        56.38063        -0.02727
C         60.01142        58.50834        -0.06584
C         58.82254        59.26347        -0.43866
C         60.16083        61.35674        -0.57870
C         58.83487        60.63816        -0.48784
C         60.09573        62.82680        -0.25933
C         58.87808        63.51253        -0.40664
C         60.09383        65.64349        -0.06649
C         58.86900        64.93764        -0.25834
C         60.06259        67.05909         0.04205
C         58.84887        67.77059         0.06403
C         60.07803        69.94700         0.07321
C         58.82406        69.22502         0.05705
C         60.10063        71.36738         0.03278
C         58.87420        72.11964        -0.25977
C         60.04792        74.23584         0.23189
C         58.84417        73.57091         0.00734
C         61.20263        59.23371         0.25063
C         62.44675        61.34611         0.43339
C         61.28720        60.62175         0.10788
C         62.50815        62.75762         0.32018
C         61.30236        63.51992         0.02485
C         62.61795        65.64890         0.11407
C         61.33968        64.93060         0.06894
C         62.56871        67.02968        -0.09252
C         61.33400        67.75705         0.40644
C         62.50253        69.97311         0.29313
C         61.30497        69.24942         0.19856
C         62.51644        71.37489         0.30358
C         61.30281        72.08472         0.20910
C         62.50226        74.20923         0.51841
C         61.29753        73.54413         0.27639
C         63.68469        63.45441         0.61181
C         64.99945        65.42679         1.01591
C         63.81856        64.86466         0.48396
C         65.37094        66.78233         0.75446
C         63.74377        67.87030        -0.40265
C         65.01615        69.90560         0.67395
C         63.80137        69.28115         0.08760
C         64.98861        71.30247         0.79173
C         63.84357        72.08847         0.17097
C         64.86656        74.15923         1.14431
C         63.74816        73.52430         0.64103
C         66.01733        67.70115         1.54904
C         67.11974        69.84999         1.90628
C         66.06642        69.14485         1.31268
C         67.17309        71.26447         1.91431
C         66.06961        72.00216         1.38995
C         67.16550        74.08658         2.05422
C         66.05649        73.43431         1.49895
C         68.27731        71.97016         2.47239
C         68.27269        73.35398         2.51995
O         63.74263        68.92448        -1.38848
O         38.89842        47.42864         1.65366
O         51.99394        65.59124        -1.72732
O         46.71818        52.20830        -2.79997
O         36.08597        67.45730         2.32104
O         48.94558        55.80916        -2.88194
O         33.46723        63.35903        -1.12497
O         41.11168        58.51367         1.18399
O         50.83531        66.95436         1.69584
O         28.98133        63.86534         2.33128
O         48.90346        46.79178        -1.96255
O         51.50833        50.04521        -2.96414
O         25.88527        67.14207        -0.42309
O         44.69676        58.51749         0.50645
O         42.31366        58.16042        -2.19076
O         40.86278        71.62556        -1.66394
O         58.22429        71.73670        -1.51718
O         36.90619        50.09015        -1.93997
O         48.10461        61.40495        -2.07875
O         64.96503        67.19074        -0.52226
O         26.33181        72.37778         2.07571
H         27.04168        72.99244         2.36402
O         30.26849        71.59085         2.49200
H         29.50977        71.04928         2.82085
O         41.52179        64.75806        -1.66102
H         41.43456        65.68739        -1.99760
O         37.99524        52.52805         1.17921
H         37.38183        53.10155         1.68499
O         51.44282        47.48552        -2.41313
H         51.46011        48.39745        -2.84774
O         40.82441        45.79114         2.06460
H         40.44307        46.63573         2.41090
O         30.70691        62.03619         2.11888
H         30.36794        62.67136         2.79374
O         25.48906        75.15743        -1.26307
H         25.54352        74.67331        -2.11206
O         46.51917        56.56799        -3.22391
H         45.70541        56.19636        -3.63563
O         31.50072        56.37470        -2.10215
H         32.36025        56.01332        -2.40934
O         44.06976        55.36306         0.55580
H         44.00491        54.56279         1.11815
O         27.55998        65.93470         2.69074
H         27.83606        65.12299         3.17692
O         41.39126        41.75287        -1.40113
H         42.10317        42.29182        -1.80897
O         42.69900        45.38666        -1.97011
H         42.61418        46.29383        -2.35761
O         41.32566        50.91086         1.35359
H         41.38646        50.01439         1.76573
O         51.32637        60.15694         0.99350
H         51.50415        60.96837         1.52645
O         51.41831        69.34773         2.33798
H         51.00355        68.52488         2.69365
O         27.92962        63.18152        -1.13171
H         28.72719        62.73233        -1.51592
O         33.11877        69.56640        -0.94984
H         32.37271        69.93551        -1.46722
O         36.43585        63.15818         2.43487
H         37.02805        63.80797         2.87067
O         42.79727        62.46945         2.00683
H         42.05356        61.85805         2.26095
O         55.61562        52.41868        -2.21700
H         56.40936        52.98879        -2.37977
O         41.42776        67.54151        -1.88433
H         42.11611        68.13636        -2.25301
O         47.92068        62.36628         1.44264
H         47.89218        63.19949         1.96154
O         49.24215        51.91981        -3.22386
H         48.41924        51.64988        -3.68856
O         40.99627        60.86381        -1.59152
H         41.55623        60.32024        -2.18783
O         60.48880        61.30364        -2.02053
H         60.68502        60.36655        -2.23655
O         51.23505        43.28875        -1.46458
H         51.21487        44.17890        -1.88061
O         36.12056        56.57597        -2.00782
H         36.82639        56.14275        -2.53232
O         41.66979        47.89860        -2.02175
H         40.83624        47.67522        -2.48804
O         43.71913        55.97458        -3.01552
H         43.34458        56.77182        -3.45469
O         56.55879        54.84948         1.66889
H         57.13484        54.63122         2.43127
O         56.39190        63.78176        -2.40164
H         56.30879        62.89919        -2.82166
O         42.42883        48.40513         1.50454
H         43.25364        48.65210         1.97392
O         56.41933        67.67118         1.96941
H         57.24784        68.10967         2.26011
O         51.42831        59.77557        -2.64589
H         51.35639        59.00218        -3.24438
O         50.00969        52.50054         0.28585
H         50.69876        53.05878         0.72424
O         50.33851        44.52238         1.91270
H         50.37389        43.64267         2.34564
O         30.25054        61.88444        -1.48875
H         30.33166        61.11521        -2.09125
O         33.97653        69.47985         2.60573
H         34.69532        68.96073         3.03384
O         55.02659        75.39684        -0.71740
H         55.05242        75.00802        -1.61565
O         52.61793        62.71626         1.34646
H         53.52278        62.46369         1.63437
O         38.56639        52.17157        -2.40285
H         39.15698        51.57914        -2.91220
O         57.15787        54.56917        -1.93921
H         56.94650        55.23275        -2.62969
O         43.90553        64.91701         2.15290
H         43.48079        64.06707         2.43827
O         46.21097        59.55080        -2.67675
H         46.87414        60.24030        -2.92643
O         61.43400        67.62610         1.88856
H         61.33390        66.67293         2.10279
O         45.38551        71.50845         1.90516
H         44.66742        71.03018         2.36960
O         46.47329        60.17780         0.94780
H         46.84626        60.92776         1.47444
O         35.56323        56.72234         1.60872
H         34.85922        57.14529         2.14346
O         47.49812        56.68180         0.32750
H         46.76670        57.21061         0.71780
O         45.09943        61.71088        -2.10635
H         44.34745        62.31692        -2.27670
O         51.70347        52.48289        -2.99039
H         51.67784        51.62175        -3.51394
O         50.25263        48.63546         0.88100
H         49.65645        49.35966         1.16619
O         27.69122        70.05235         2.61933
H         26.95261        70.69662         2.75914
O         46.18763        71.84525        -1.64251
H         46.92083        72.30288        -2.10424
O         40.57875        60.96618         2.04349
H         39.75417        61.07353         2.56160
O         64.11041        72.15374        -1.26656
H         64.09924        71.23283        -1.61059
O         52.31603        54.18504         0.81104
H         53.17517        54.04220         1.26487
O         57.85301        58.42105        -2.41757
H         57.92896        59.33930        -2.75674
H         22.97517        75.01807        -1.00996
H         25.23216        74.79510         0.74049
H         27.87713        75.05412        -0.64566
H         30.31817        75.14877        -0.22298
H         32.77837        75.20156        -0.12431
H         35.26297        75.23730        -0.11181
H         37.72814        75.24710        -0.21649
H         40.19369        75.26343        -0.16590
H         42.70524        75.28257         0.03387
H         45.16076        75.26291         0.20402
H         47.66106        75.25556         0.21366
H         50.12395        75.24135         0.10612
H         52.58120        75.26296         0.11746
H         55.14752        74.81824         1.24703
H         57.54832        75.31503         0.12459
H         60.04150        75.32553         0.38837
H         62.48342        75.29473         0.70535
H         64.81840        75.23253         1.38765
H         67.16388        75.18313         2.13521
H         21.98351        69.28608         0.12331
H         20.82025        71.28128        -0.68217
H         20.85098        73.71687        -1.21750
H         24.42931        64.96585         1.69524
H         22.99991        67.44976         1.23676
H         26.91776        60.75880         0.56465
H         25.63252        62.93087         0.64124
H         29.33194        56.52352        -0.12947
H         28.14401        58.62825         0.31617
H         31.78233        52.18127        -0.04552
H         30.57305        54.32143        -0.28568
H         34.29918        47.85434         0.08795
H         33.00380        50.03247         0.06876
H         36.84106        43.65411         0.48582
H         35.59752        45.73733         0.18689
H         39.29680        39.47248         1.21181
H         38.05768        41.58788         0.89795
H         41.79184        35.31394         2.05710
H         40.54054        37.37732         1.52200
H         45.20948        32.10273         3.07546
H         43.04723        33.25844         2.65147
H         47.36515        33.33044         2.88772
H         48.60496        35.42946         2.42429
H         49.83396        37.52482         1.96231
H         51.05985        39.58579         1.44864
H         52.29788        41.56343         0.72989
H         53.57684        43.75103         0.41438
H         54.72434        45.93923         0.44260
H         55.86262        48.08109         0.52505
H         56.94269        50.23228         0.80648
H         58.07447        52.40837         1.07710
H         59.45822        54.58298         0.89959
H         60.83684        56.59053         0.46186
H         62.06453        58.68156         0.65622
H         63.33562        60.80531         0.79355
H         64.56912        62.88141         0.92948
H         65.63338        64.79133         1.65420
H         66.47229        67.34952         2.48797
H         67.93310        69.28815         2.38929
H         69.13533        71.40312         2.86118
H         69.13241        73.88991         2.94637
