         244
 CSIRO Nanostructure Databank - Neutral Graphene Oxide Data Set
C          1.23956         2.14636        -0.25050
C          1.26015         3.54118         0.08425
C          2.40052         1.43593        -0.30277
C          2.39848         4.16252         0.51773
C          1.22422         6.36632         0.79804
C          1.21387         7.75052         0.76655
C          2.42023         5.62618         0.60294
C          2.39231         8.49173         0.50648
C          1.20249        10.71954         0.48558
C          1.19228        12.09382         0.29332
C          2.38769         9.93172         0.34883
C          2.33544        12.79870        -0.14811
C          1.16834        14.98028        -0.44463
C          1.18675        16.35102        -0.58916
C          2.37064        14.21765        -0.36827
C          2.41330        17.07064        -0.60286
C          2.44134        18.49602        -0.70615
C          3.67222         1.98676         0.11627
C          3.63398         3.33982         0.88023
C          4.77066         1.18857        -0.13240
C          4.90343         4.18049         0.75184
C          3.62007         6.33248         0.39790
C          3.61720         7.77019         0.32983
C          4.88351         5.60790         0.42409
C          4.82749         8.48220         0.11413
C          3.58959        10.59336         0.01003
C          3.54307        12.00671        -0.38241
C          4.83471         9.89402        -0.01348
C          4.89543        12.77363        -0.50428
C          3.62261        14.91955        -0.44096
C          3.63536        16.35134        -0.49661
C          4.86852        14.23313        -0.36252
C          4.87207        17.06861        -0.43341
C          3.62881        19.18353        -0.67724
C          4.87414        18.49344        -0.52044
C          6.12050         1.50466         0.28099
C          6.12236         3.58636         0.96829
C          7.30230         1.27656        -0.36143
C          7.40223         4.17616         0.65329
C          6.06702         6.30020         0.34313
C          6.08286         7.70778        -0.19422
C          7.35052         5.67414         0.83676
C          7.34352         8.47931         0.09104
C          6.08174        10.62777        -0.05807
C          6.11786        12.03041        -0.17759
C          7.33761         9.89536         0.06426
C          7.31551        12.79026        -0.00515
C          6.08640        14.93066        -0.19244
C          6.10356        16.37691        -0.23579
C          7.30118        14.18553        -0.03339
C          7.30704        17.12027        -0.12005
C          6.09607        19.19782        -0.42320
C          7.30585        18.52864        -0.21845
C          8.54637         2.03205        -0.13158
C          8.53484         3.45582         0.27360
C          9.71389         1.45975        -0.56594
C          9.78579         4.18500         0.07767
C          8.57494         6.38134         0.38329
C          8.57535         7.76160         0.21441
C          9.81576         5.61471         0.47130
C          9.83626         8.46077         0.07160
C          8.54771        10.61244         0.02280
C          8.58290        12.07097         0.39707
C          9.78358         9.88868        -0.22896
C          9.85788        12.80667         0.01204
C          8.56913        14.92138         0.19501
C          8.58021        16.42320         0.16286
C          9.82873        14.20244        -0.04475
C          9.86351        17.14822        -0.05246
C          8.56399        19.34751         0.01721
C          9.86839        18.57687        -0.06065
C         11.00507         2.18264        -0.85598
C         10.90976         3.65100        -0.51802
C         12.26822         1.46459        -0.34552
C         12.06787         4.49301        -0.80513
C         11.10856         6.36182         0.44876
C         11.05862         7.81957         0.18312
C         12.28223         5.66937        -0.11501
C         12.30615         8.53890         0.16842
C         11.12567        10.66195        -0.20230
C         11.07710        12.10160        -0.02355
C         12.32688         9.91766         0.18641
C         12.40660        12.78741        -0.14551
C         11.06979        14.96178        -0.44700
C         11.06840        16.44510        -0.14174
C         12.28219        14.26838         0.12669
C         12.31582        17.13913        -0.11652
C         11.07316        19.26274        -0.10925
C         12.33245        18.57826        -0.10111
C         13.45290         1.98493         0.13748
C         13.61260         3.30859         0.75198
C         14.71033         1.29529        -0.09658
C         14.73241         4.08593         0.43646
C         13.61475         6.35672        -0.03688
C         13.51466         7.75050         0.62725
C         14.73676         5.56213         0.75642
C         14.83372         8.45538         0.43360
C         13.52554        10.64352         0.66496
C         13.49607        12.16900         0.75449
C         14.85269         9.90877         0.62801
C         14.82674        12.83400         0.41295
C         13.56811        15.00296         0.25687
C         13.56039        16.44372        -0.04792
C         14.82357        14.21210         0.20157
C         14.78592        17.11147        -0.06127
C         13.56451        19.25958        -0.06535
C         14.81736        18.56709        -0.07957
C         15.91823         1.96718        -0.07546
C         15.96314         3.41499         0.12748
C         17.16511         1.29137        -0.36104
C         17.17249         4.10570         0.16586
C         16.03555         6.28115         0.42414
C         16.03337         7.72080         0.31718
C         17.21911         5.55216         0.24480
C         17.25896         8.42013         0.03348
C         16.06430        10.68309         0.31280
C         16.03483        12.06402         0.21886
C         17.18812         9.89464        -0.36549
C         17.23095        12.73713        -0.45310
C         16.02424        14.95175        -0.02820
C         15.99707        16.33908        -0.03667
C         17.35699        14.28695        -0.31077
C         17.26429        17.06624         0.22454
C         16.04515        19.22848        -0.08274
C         17.32885        18.47054        -0.33168
C         18.37158         1.93443        -0.26893
C         18.45094         3.33324         0.30189
C         19.61895         1.25756        -0.53414
C         19.68054         4.10250        -0.11623
C         18.45907         6.25926         0.06287
C         18.44407         7.67922        -0.07597
C         19.69747         5.52082        -0.09471
C         19.71209         8.36368        -0.43539
C         18.49837        10.63881        -0.20213
C         18.52012        12.00431        -0.09897
C         19.74561         9.89464        -0.42909
C         19.77728        12.72944         0.04439
C         18.44816        14.76784         0.68367
C         18.47262        16.31702         0.68629
C         19.77368        14.12788         0.29466
C         19.80174        17.06141         0.84679
C         18.60301        19.17494         0.04545
C         19.74347        18.50810         0.36547
C         20.80416         1.93083        -0.52388
C         20.86096         3.37139        -0.36096
C         22.08748         4.06145        -0.50498
C         20.94923         6.20318        -0.23859
C         20.98915         7.65068        -0.27419
C         22.12975         5.44153        -0.41266
C         22.16413         8.39334        -0.27260
C         21.02966        10.57898        -0.23517
C         21.01254        12.02022        -0.05842
C         22.18656         9.80927        -0.24257
C         22.21500        12.76193        -0.00968
C         20.98292        14.85831         0.24470
C         21.01510        16.31748         0.32773
C         22.19593        14.13976         0.08556
C         22.14982        17.04739         0.09378
C         21.02186        19.20001         0.34037
C         22.17046        18.48477         0.19947
O         10.49480        10.24695        -1.46818
O         17.00799        12.48318        -1.84093
O          4.18598        12.27414        -1.67707
O         12.67867        14.72969         1.42488
O         14.12435        10.15784         1.92355
O         17.54216        16.90391         1.67376
O          6.15367         2.27372         1.46378
O         19.65294         9.11996        -1.68441
O          8.56326        15.70774         1.46713
O         10.57067         5.90157         1.74225
O         12.69810         3.69526         1.65768
H         12.97805         4.56256         2.05241
O          7.34448         5.90662         2.30144
H          8.25868         5.74464         2.62555
O          3.48589         2.98393         2.28413
H          4.31870         2.52875         2.54369
O          6.07053         7.54686        -1.67505
H          5.98894         8.44421        -2.06507
O          8.46492        19.96096         1.31866
H          8.46394        19.24635         1.98896
O         14.51042         5.63970         2.19268
H         15.27408         5.20024         2.62284
O         18.63297         3.13190         1.76239
H         19.44993         2.59991         1.87535
O         13.24958         7.60766         2.04788
H         13.41064         8.49539         2.44928
O         13.13486        12.45971         2.11690
H         13.68708        11.88716         2.69451
O         12.85884        12.60627        -1.50853
H         12.26731        13.13436        -2.09314
O         11.19833        14.84127        -1.91028
H         10.41626        15.26376        -2.32425
O         17.38690        18.29795        -1.79063
H         17.46724        19.18626        -2.19667
O         17.80013        14.79226        -1.58622
H         17.54224        14.06672        -2.22685
O         18.12678        14.31688         2.01251
H         17.62648        15.04500         2.44756
O          8.57902        12.06452         1.87088
H          8.65542        12.99842         2.16713
O         14.07388         6.48109        -1.40878
H         14.93084         6.96119        -1.43912
O         11.16168         2.06364        -2.30730
H         11.93702         2.61917        -2.55461
O         20.03527        17.15564         2.28371
H         19.17165        17.40503         2.68535
O         12.95963         4.04667        -1.73932
H         13.62552         4.76976        -1.87868
O         16.82122         9.86167        -1.76920
H         16.87826        10.82562        -2.07308
H          0.29255         1.68860        -0.56818
H          0.35459         4.12863        -0.12606
H          2.39270         0.40152        -0.67911
H          0.28519         5.83507         1.00634
H          0.26151         8.27323         0.92976
H          0.26593        10.23311         0.78975
H          0.25563        12.63991         0.47408
H          0.20081        14.46011        -0.41976
H          0.24159        16.90666        -0.67359
H          1.48936        19.03775        -0.80468
H          4.61137         0.27099        -0.72372
H          3.63764        20.28051        -0.75271
H          7.30676         0.58697        -1.21946
H          6.08752        20.29664        -0.47312
H          9.67304         0.42202        -0.93352
H          8.59291        20.19138        -0.72134
H         12.34863         0.45218        -0.78231
H         11.06721        20.36304        -0.12089
H         14.68364         0.23159        -0.37940
H         13.56808        20.35969        -0.03520
H         17.13026         0.23228        -0.66208
H         16.06810        20.33004        -0.10598
H         19.59444         0.18113        -0.76178
H         18.67028        20.24897        -0.20080
H         21.74483         1.39746        -0.72486
H         23.00975         3.49128        -0.68703
H         23.09592         5.95108        -0.52469
H         23.13291         7.87769        -0.21349
H         23.16920        10.29323        -0.15651
H         23.18311        12.24941        -0.08920
H         23.15391        14.67576         0.08088
H         23.08614        16.55712        -0.20673
H         21.03303        20.29984         0.30692
H         23.13549        19.00102         0.09562
