         671
 CSIRO Nanostructure Databank - Neutral Graphene Oxide Data Set
C          5.74747        31.79764         0.54890
C          5.71906        33.12943         0.76935
C          8.22330        27.49637         0.02850
C          8.16813        28.84654         0.38667
C          6.97841        29.62653         0.41351
C          8.18803        31.74000         0.82785
C          6.98039        31.01819         0.62914
C          8.21962        33.15379         0.96482
C          6.93116        33.90242         1.22445
C          8.16710        36.03958         0.81661
C          6.99318        35.32316         0.73210
C          8.20810        37.45002         0.61691
C         10.82461        23.27328        -0.71292
C         10.72139        24.72086        -0.78840
C          9.48705        25.41950        -0.39806
C         10.72022        27.50205         0.05937
C          9.46141        26.77457        -0.10670
C         10.69096        28.81630         0.44747
C          9.43455        29.50288         0.76331
C         10.70363        31.77546         0.86084
C          9.45276        31.01454         0.95077
C         10.69028        33.15657         1.02371
C          9.42328        33.84503         1.07479
C         10.68870        35.95675         0.79046
C          9.41424        35.33528         1.32977
C         10.69080        37.43136         0.48454
C          9.41354        38.20356         0.57876
C         10.70693        40.31409         0.17078
C          9.43334        39.58947         0.52500
C         10.75941        41.80232         0.43344
C         13.34137        19.05695        -0.70815
C         13.32631        20.46905        -0.84763
C         12.10778        21.18913        -0.84943
C         13.28786        23.35882        -0.94677
C         12.05256        22.61313        -0.87040
C         13.33123        24.75104        -0.73568
C         12.05466        25.50617        -0.77751
C         13.18962        27.45224         0.19955
C         12.02038        26.85649        -0.17588
C         13.14255        28.76804         0.95831
C         11.96076        29.58067         0.48326
C         13.21975        31.75695         1.03485
C         11.97163        31.06670         0.66242
C         13.17470        33.10793         1.32162
C         11.94856        33.86383         1.19603
C         13.17360        36.01436         1.12585
C         11.96932        35.27398         1.11445
C         13.14629        37.42541         0.93284
C         11.96948        38.13409         0.66461
C         13.21287        40.38843         0.73706
C         11.90680        39.59583         0.77039
C         13.19183        41.78941         0.34441
C         11.95664        42.49878         0.40514
C         13.20613        44.69125        -0.09915
C         11.96643        44.02374         0.49051
C         13.19807        45.95945        -0.55410
C         15.75930        14.73600        -0.60605
C         15.72745        16.15863        -0.51515
C         14.55732        16.90668        -0.54899
C         15.77774        19.08108        -0.64774
C         14.55094        18.34713        -0.61259
C         15.79297        20.48366        -0.87015
C         14.56959        21.17070        -0.98326
C         15.85830        23.39290        -1.07653
C         14.54063        22.62689        -1.17979
C         15.81710        24.78608        -0.57829
C         14.54781        25.43239        -0.47108
C         15.64871        27.31129         0.78530
C         14.54722        26.92383        -0.20964
C         15.66091        28.72963         1.38101
C         14.46449        29.50853         0.86471
C         15.76089        31.63171         1.38699
C         14.49303        31.00256         0.96436
C         15.72345        33.06428         1.71912
C         14.41720        33.81850         1.69945
C         15.74498        35.94695         1.18292
C         14.43659        35.33016         1.52769
C         15.71553        37.41349         0.92104
C         14.43310        38.17142         0.96266
C         15.65803        40.23181        -0.07095
C         14.40644        39.56212         0.40007
C         15.71704        41.70122        -0.08995
C         14.48711        42.47049         0.18410
C         15.70534        44.58688        -0.58729
C         14.49518        43.96423        -0.00271
C         15.71954        45.91351        -0.92572
C         14.41808        46.67485        -1.09096
C         15.75751        48.75345        -0.70709
C         14.55502        48.08641        -0.58360
C         15.86072        50.15576        -0.37995
C         18.29097        10.51162        -0.47094
C         18.21405        11.88634        -0.72980
C         17.01828        12.60725        -0.57218
C         18.23148        14.75702        -0.76888
C         16.96278        14.02252        -0.68409
C         18.24841        16.15460        -0.64034
C         17.01712        16.86157        -0.33335
C         18.31310        19.07902        -0.67988
C         17.03658        18.39013        -0.38757
C         18.30105        20.49978        -0.73954
C         17.06069        21.21162        -0.82030
C         18.31809        23.31520        -0.70173
C         17.08880        22.61302        -0.82916
C         18.33095        24.83070        -0.66621
C         17.01403        25.39569        -0.18681
C         18.19896        27.22250         1.29604
C         16.94595        26.56995         0.70578
C         18.15434        28.76116         1.29757
C         16.98816        29.46663         1.24153
C         18.23035        31.65166         1.37212
C         16.96106        30.93385         1.37072
C         18.25844        33.07309         1.19664
C         17.02829        33.83351         1.51655
C         18.15391        35.87615         0.51450
C         16.92995        35.26365         1.17284
C         18.21213        37.39442         0.80038
C         16.93669        38.03885         0.31929
C         18.23869        40.22525        -0.02557
C         16.95424        39.47401        -0.07414
C         18.18791        41.65321        -0.26127
C         16.93299        42.33776        -0.32284
C         18.21067        44.43830        -1.09736
C         16.90222        43.74911        -0.77513
C         18.22131        45.91602        -1.15455
C         16.97368        46.62780        -1.16502
C         18.17324        48.80005        -1.42905
C         16.95148        48.03879        -1.13801
C         18.17439        50.32830        -1.35591
C         17.00388        50.90854        -0.59219
C         18.26024        53.03009        -0.41314
C         17.06265        52.29343        -0.29374
C         18.29072        54.42839        -0.24260
C         20.71510         6.25326        -0.09273
C         20.69725         7.63504        -0.23690
C         19.47975         8.38915        -0.27066
C         20.72620        10.32437        -1.20871
C         19.47371         9.74250        -0.59152
C         20.73486        11.85870        -1.26478
C         19.39912        12.61898        -1.32263
C         20.68225        14.72222        -0.39212
C         19.44808        14.05069        -0.83581
C         20.70980        16.24630        -0.23674
C         19.52368        16.87223        -0.99635
C         20.73924        19.07308        -0.94105
C         19.50821        18.37255        -0.81459
C         20.75792        20.46756        -0.90618
C         19.54033        21.20314        -0.79490
C         20.79882        23.42381        -0.88041
C         19.52539        22.63050        -0.74196
C         20.75645        24.74326        -0.12818
C         19.55403        25.36657         0.06360
C         20.73726        27.26898         1.27371
C         19.48372        26.81282         0.50574
C         20.73286        28.77676         1.37631
C         19.43394        29.46210         1.74290
C         20.67407        31.62709         1.31784
C         19.44570        30.93807         1.42128
C         20.70617        33.03128         1.03556
C         19.46568        33.74786         0.94076
C         20.66922        35.88098         0.62215
C         19.48784        35.19903         0.78256
C         20.71990        37.40166         0.76841
C         19.45568        38.02345         0.14602
C         20.71862        40.22698        -0.25587
C         19.42541        39.53395         0.11713
C         20.64724        41.69145         0.20778
C         19.42153        42.38891        -0.36706
C         20.71900        44.40997        -1.14280
C         19.45040        43.71481        -0.74383
C         20.69738        45.90691        -0.97514
C         19.46101        46.58930        -1.10057
C         20.74281        48.76867        -1.06076
C         19.49564        48.03893        -1.35269
C         20.71900        50.18986        -0.93280
C         19.49801        50.93137        -0.90540
C         20.75283        52.99268        -0.43120
C         19.51366        52.30029        -0.61045
C         20.76370        54.44368        -0.34990
C         19.49658        55.17272        -0.29492
C         20.72229        57.33457        -0.32837
C         19.51731        56.57080        -0.19081
C         20.75409        58.70492        -0.25239
C         23.18383         3.40751        -0.07740
C         21.97071         4.10074        -0.11680
C         23.17790         6.21104         0.05848
C         21.95288         5.51407        -0.04799
C         23.16162         7.69367         0.31223
C         21.94730         8.38057        -0.25592
C         23.21955        10.45321        -0.50049
C         21.97857         9.70924        -0.60713
C         23.24660        11.84248        -0.63101
C         22.00288        12.58232        -0.95389
C         23.24961        14.74101        -0.56459
C         21.98030        13.99205        -0.46156
C         23.22051        16.16811        -0.69308
C         22.01297        16.87295        -0.69801
C         23.27870        19.00652        -0.85131
C         22.00674        18.29005        -1.22698
C         23.20174        20.43738        -0.39934
C         22.06648        21.20510        -1.08380
C         23.32128        23.37051        -0.67344
C         22.02708        22.62235        -0.57778
C         23.28195        24.73300        -0.03109
C         22.02986        25.39819         0.17728
C         23.20911        27.43731         0.87466
C         22.01140        26.71158         0.68297
C         23.18596        28.76478         1.30694
C         21.91900        29.46931         1.43016
C         23.11451        31.64668         1.50094
C         21.92544        30.93137         1.44828
C         23.15859        33.06963         1.29349
C         21.94114        33.71931         0.93462
C         23.23682        35.84595         0.35187
C         21.91435        35.07322         0.26528
C         23.23974        37.34342         0.31983
C         21.96520        38.10686         0.28194
C         23.26370        40.17834         0.04810
C         21.98682        39.47077         0.14011
C         23.25837        41.66062        -0.03552
C         21.96704        42.42243        -0.04880
C         23.16819        44.44417        -0.86810
C         21.97839        43.77696        -0.63459
C         23.16674        45.87895        -0.92101
C         21.93030        46.59330        -0.90025
C         23.16296        48.74178        -0.66727
C         21.93408        48.04840        -0.84738
C         23.18816        50.13993        -0.71033
C         21.95578        50.87340        -0.74030
C         23.24101        52.94493        -0.25588
C         21.95777        52.27364        -0.51127
C         23.22947        54.45694        -0.20622
C         21.95156        55.13993        -0.38125
C         23.26587        57.27417        -0.27616
C         21.98969        56.60421        -0.72913
C         23.20726        58.69259         0.18644
C         22.04597        59.44465        -0.49315
C         23.22821        61.51390         0.19866
C         22.04218        60.88075        -0.04966
C         24.39291         4.09012         0.02255
C         25.64463         6.22909         0.16502
C         24.41477         5.50996         0.09296
C         25.68478         7.64493         0.05965
C         24.45734         8.37075        -0.03008
C         25.69588        10.47141        -0.30608
C         24.46022         9.75623        -0.26199
C         25.69705        11.88558        -0.45434
C         24.45860        12.57974        -0.55696
C         25.69634        14.72345        -0.77448
C         24.45418        14.02140        -0.63742
C         25.67561        16.14103        -0.94581
C         24.48253        16.85778        -0.89610
C         25.72504        19.02936        -0.64164
C         24.47728        18.32058        -0.83424
C         25.74834        20.41259        -0.45851
C         24.52289        21.17231        -0.45072
C         25.75407        23.24024         0.03291
C         24.54215        22.55027        -0.31978
C         25.71854        24.61337         0.35290
C         24.49915        25.34243         0.30778
C         25.64382        27.35131         1.39090
C         24.53762        26.84345         0.46023
C         25.64962        28.86080         1.38058
C         24.43488        29.48376         1.47240
C         25.63392        31.66023         2.08240
C         24.37116        30.92582         1.79611
C         25.60669        33.16163         1.98176
C         24.37314        33.79142         1.46055
C         25.75164        35.90000         0.95259
C         24.48287        35.12475         0.82981
C         25.73427        37.36411         0.68105
C         24.44373        38.12199         0.79036
C         25.74585        40.11903        -0.11455
C         24.47163        39.51002         0.17488
C         25.78267        41.56157        -0.49789
C         24.53750        42.36973        -0.41426
C         25.71823        44.51654        -1.33712
C         24.41240        43.64204        -1.23276
C         25.61886        45.85889        -0.64793
C         24.42855        46.54418        -0.67690
C         25.68613        48.71173        -0.68555
C         24.41509        47.99902        -0.26442
C         25.64911        50.11634        -0.92529
C         24.45692        50.84397        -0.79046
C         25.67809        52.99005        -0.72850
C         24.49799        52.27117        -0.65557
C         25.77162        54.41547        -0.22039
C         24.48713        55.17834        -0.38980
C         25.76996        57.30088        -0.26585
C         24.48339        56.58133        -0.34203
C         25.72747        58.71334        -0.03568
C         24.52753        59.42781         0.06608
C         24.47806        60.82682         0.14662
C         26.91164         8.35782        -0.00997
C         28.15532        10.49399        -0.18689
C         26.93611         9.75781        -0.16298
C         28.17367        11.88744        -0.35013
C         26.93090        12.61086        -0.49579
C         28.18565        14.73882        -0.75840
C         26.92855        14.01043        -0.69165
C         28.20367        16.08886        -1.03521
C         26.93964        16.87221        -1.33771
C         28.18233        19.10271        -1.13646
C         27.02118        18.24811        -0.60544
C         28.22953        20.44532        -0.44042
C         27.00459        21.12817        -0.27804
C         28.22984        23.19775         0.27217
C         26.99497        22.50831         0.06391
C         28.22643        24.57472         0.64709
C         26.92736        25.19907         1.06946
C         28.16290        27.42328         1.13206
C         26.96332        26.70646         1.09435
C         28.18814        28.85708         1.28244
C         26.91376        29.66938         1.17916
C         28.21650        31.73557         1.78349
C         26.98034        30.90140         2.11303
C         28.19885        33.15116         1.81020
C         26.93784        33.91101         2.02500
C         28.20178        36.02731         1.24885
C         26.92284        35.43968         1.81234
C         28.18003        37.30973         0.75115
C         26.92621        38.02459         0.53398
C         28.20741        40.04724        -0.19218
C         26.92872        39.40632         0.05927
C         28.22993        41.25722        -1.06880
C         27.02410        42.17637        -1.09480
C         28.21563        44.48069        -0.58331
C         27.03293        43.70658        -1.09751
C         28.16959        45.84160        -0.45086
C         26.87467        46.58446        -0.22576
C         28.14008        48.71292        -0.91162
C         26.89327        48.02482        -0.70700
C         28.16560        50.08542        -1.11239
C         26.89658        50.80577        -1.26339
C         28.21239        53.03967        -0.99341
C         26.90536        52.35672        -1.20250
C         28.21119        54.40306        -0.79712
C         26.91588        55.16726        -0.92125
C         26.94530        56.60892        -0.47720
C         29.39607        12.61679        -0.35592
C         30.65913        14.71072        -0.50533
C         29.43134        14.00447        -0.54311
C         30.72225        16.09851        -0.71540
C         29.48829        16.80716        -1.12087
C         30.72671        19.00220        -0.63291
C         29.50408        18.33426        -1.11084
C         30.70677        20.37327        -0.28897
C         29.45785        21.09769        -0.21801
C         30.70374        23.14122         0.35162
C         29.46609        22.48328         0.12637
C         30.68969        24.61092         0.52749
C         29.41086        25.30019         0.80168
C         30.63953        27.41999         1.28787
C         29.42164        26.70171         1.07371
C         30.62748        28.80100         1.46987
C         29.39660        29.54906         1.44371
C         30.68779        31.69808         1.53703
C         29.41507        31.00572         1.58274
C         30.66885        33.16657         1.52081
C         29.42141        33.87948         1.57622
C         30.67137        35.99806         1.22053
C         29.43738        35.28860         1.36831
C         30.68907        37.41250         1.03556
C         29.46309        37.98555         0.36376
C         30.68931        40.23492         0.27242
C         29.37185        39.49011         0.27862
C         30.63354        41.75636         0.42947
C         29.46068        42.55386         0.47944
C         30.70590        44.48876        -0.27795
C         29.45150        43.81026        -0.16507
C         30.70953        45.89000        -0.41833
C         29.42521        46.64844        -0.18167
C         30.68577        48.71485        -0.88701
C         29.41281        47.90749        -1.07332
C         30.63540        50.11834        -0.97891
C         29.41375        50.83966        -1.09051
C         29.40294        52.24310        -1.01846
C         31.91365        16.82641        -0.58122
C         33.14651        18.93290        -0.23576
C         31.93660        18.24761        -0.52165
C         33.16535        20.30693         0.02944
C         31.91881        21.03970         0.06549
C         33.16030        23.03621         0.97206
C         31.90541        22.41953         0.38745
C         33.21892        24.53769         0.89236
C         31.95888        25.31677         0.83407
C         33.19513        27.42323         1.24417
C         31.92618        26.64957         1.54768
C         33.16563        28.78874         1.34316
C         31.91057        29.50481         1.83940
C         33.20239        31.72075         1.64315
C         31.88288        30.98382         1.53105
C         33.09212        33.12279         1.10193
C         31.86702        33.88487         1.41025
C         33.12127        36.04172         1.09414
C         31.91065        35.30621         1.28600
C         33.13486        37.44769         1.08913
C         31.87594        38.15102         1.12108
C         32.88170        40.52340         1.35986
C         31.65211        39.65827         1.31950
C         33.06703        41.71816         0.73855
C         31.87611        42.41843         0.26990
C         33.19128        44.50584        -0.04387
C         31.92574        43.79630        -0.01360
C         33.15953        45.89905        -0.37484
C         31.94288        46.60161        -0.51083
C         31.88829        48.03000        -0.68549
C         34.39858        21.00713         0.19776
C         35.63550        23.09921         0.49696
C         34.43533        22.36755         0.50759
C         35.66642        24.50686         0.66585
C         34.40615        25.22355         0.86886
C         35.63392        27.33911         0.81878
C         34.42304        26.68023         0.97116
C         35.70368        28.79162         1.01428
C         34.42963        29.54282         1.29414
C         35.52199        31.66399         0.61723
C         34.40484        31.00615         1.06741
C         35.59309        33.10833         0.56806
C         34.32682        33.85358         0.73412
C         35.54265        35.95994         0.27330
C         34.44439        35.31460         1.08326
C         35.37967        37.39454        -0.15341
C         34.41515        38.11406         0.76635
C         35.70344        40.22932         0.42511
C         34.72377        39.38990         1.12007
C         35.55049        41.58744         0.27892
C         34.41214        42.43613         0.85157
C         34.36983        43.82471         0.25289
C         36.85548        25.22370         0.49442
C         38.03501        27.37765         0.23958
C         36.87046        26.64606         0.51246
C         38.00917        28.80584         0.10659
C         36.85064        29.50639         0.44346
C         37.95210        31.68058        -0.13930
C         36.65998        30.91262        -0.03535
C         37.93625        33.06649        -0.18450
C         36.72141        33.79272         0.15031
C         37.85541        35.92974        -0.56124
C         36.67112        35.24148        -0.04053
C         37.84984        37.31925        -0.67316
C         36.71404        38.10852        -0.30653
C         36.79043        39.48050        -0.18015
C         39.16161        29.54576        -0.35291
C         40.33618        31.68669        -0.78333
C         39.15455        30.93695        -0.42819
C         40.30890        33.04890        -0.88192
C         39.10869        33.79852        -0.60953
C         39.04495        35.17596        -0.80085
O         24.79594        31.20855         3.20629
O         33.94301        39.99853         2.13040
O          9.44864        30.07414         2.11895
O         25.45054        42.40797         0.70662
O         29.10278        41.36188        -1.92830
O         23.30595        53.61737         1.05342
O         35.35687        29.21253         2.41099
O         22.77406        42.33037         1.19371
O         25.53335        35.08440        -0.24106
O         18.86556        48.36831        -2.65047
O         15.92095        26.30297         1.79234
O         33.40915        33.38956        -0.31639
O         27.12471        42.91036        -2.34542
O         12.50379        40.11848         1.99037
O         21.26759        14.07880         0.83380
O         29.68238        17.59169        -2.36425
O         10.64036        36.41726        -0.59274
O         14.67908        39.66239        -1.03124
O         20.75271         9.83439        -2.63487
O         15.26755        38.10024         2.16669
O         14.72966        43.42554         1.34581
O         26.80428        51.64459        -2.46412
O         17.07203        17.67569         0.89852
O         26.19459        33.65115         3.26570
O         31.45080        25.34378        -0.54249
O         17.41105        43.82357        -2.16271
O         16.92702        38.38232        -1.09063
O         11.32632        25.33630        -2.01081
O         16.54529        33.45995         2.85158
O         12.09056        30.40629        -0.70243
O         23.48524        36.57394        -0.90118
O         14.30196        34.70660         2.84733
O         21.59085        12.38025        -2.35018
O         14.67876        30.25989        -0.33559
O         15.26488        23.12064        -2.37572
O         22.81686        20.39527         1.01355
H         23.51792        19.91968         1.50653
O          6.84651        34.00566         2.70183
H          6.79563        33.08997         3.05233
O         17.98913        50.80141        -2.72314
H         18.49192        50.18048        -3.30029
O         10.86453        40.17179        -1.28936
H         10.76746        39.22027        -1.51267
O         26.75294        24.75868         2.47075
H         26.00577        25.29577         2.83797
O         19.44940        27.58478        -0.72325
H         19.03054        27.02715        -1.42787
O         20.76498        40.25756        -1.71359
H         20.59121        39.33803        -2.02345
O         10.78085        44.57229        -0.07877
H         10.77109        44.36498        -1.03566
O         27.18771        30.40756         3.45144
H         26.37347        30.61659         3.96833
O         20.39520        41.68039         1.62906
H         21.27099        41.75702         2.07919
O         20.82967        37.64160         2.19433
H         19.94164        37.52901         2.61199
O         17.90173        35.64632        -0.89655
H         18.74375        35.80169        -1.38351
O         27.33895        17.96583         0.78286
H         26.57907        17.49149         1.18108
O         24.24727        38.32724         2.22476
H         24.98764        38.87187         2.56574
O         29.40663        47.41657        -2.44302
H         29.40016        48.19065        -3.04437
O         26.80776        46.67794         1.25154
H         25.94213        47.11750         1.47685
O         20.78563        44.21196        -2.61348
H         20.69864        43.25030        -2.79137
O         30.97850        39.79919         2.60379
H         31.60756        39.52343         3.30403
O         19.73059        16.60495        -2.41398
H         20.49400        17.15977        -2.72610
O         26.06068        54.36681         1.20428
H         25.24051        54.03212         1.63940
O         26.84685        17.04826        -2.76627
H         27.65910        17.52708        -3.06022
O         36.21229        30.75390        -1.44441
H         36.96402        30.37179        -1.94679
O         25.79493        44.96346        -2.72558
H         26.32569        44.29747        -3.22302
O         23.53153        23.67350        -2.13719
H         23.51756        22.78541        -2.58056
O         20.71572        26.72859         2.62697
H         21.55645        26.98867         3.05933
O         33.05846        22.73423         2.41372
H         33.81381        23.17197         2.86121
O         21.71851        34.74927        -1.15039
H         22.21956        35.42715        -1.66481
O         22.33400        59.41409        -1.93558
H         21.70413        60.02047        -2.37923
O         20.54674        16.56707         1.16091
H         20.96437        15.83397         1.66994
O         22.05731        56.66401        -2.19769
H         22.18111        57.62206        -2.42434
O         23.03564         7.83355         1.78813
H         23.79722         7.35915         2.18576
O         15.46307        28.60297         2.81833
H         15.99877        27.83187         3.11598
O         12.85298        28.47585         2.34601
H         13.71131        28.32350         2.81811
O         25.24321        26.95888         2.75205
H         25.80828        27.45829         3.38059
O         20.85529        23.79736        -2.32900
H         21.80067        24.06876        -2.49309
O         22.01591        18.14882        -2.71192
H         22.89831        17.80110        -2.96838
O         14.91072        27.60865        -1.44138
H         14.21105        27.44761        -2.10898
O         28.36563        42.17861         1.20676
H         28.57339        41.39136         1.75071
O         19.42398         9.98785        -3.18228
H         19.30079        10.97984        -3.24033
O         33.45498        31.83697         3.09198
H         34.39169        32.10015         3.22133
O         18.24798        37.60640         2.22937
H         17.36320        37.41441         2.61226
O         29.46474        47.06622         1.20591
H         28.54172        47.00570         1.56226
O         31.95107        26.37572         2.97571
H         31.97644        27.24997         3.43241
O         34.71166        42.63511         2.26834
H         34.67327        41.74462         2.68798
O         31.29213        39.99029        -1.02614
H         30.71069        40.44935        -1.68823
O         19.08395        12.72176        -2.75742
H         19.89719        13.07628        -3.18849
O         14.19924        46.78537        -2.54089
H         14.99308        47.21348        -2.92745
O         24.41644        48.00172         1.21740
H         24.33343        48.93460         1.51099
O         29.70860        37.63308        -1.04877
H         30.50152        38.14826        -1.33598
O         22.86072        58.65706         1.60651
H         23.60505        58.23813         2.08775
O         34.76863        37.37090        -1.48285
H         35.33976        36.82584        -2.06414
O         34.92222        35.29768         2.47620
H         35.03090        36.22897         2.76438
O         19.38359        29.34608         3.20920
H         19.29402        28.38025         3.40247
O         18.50030        25.31100        -2.04955
H         19.29042        24.83320        -2.41722
O         22.37299        21.24433        -2.51981
H         21.60456        21.67371        -2.95913
O         32.01818        29.39515         3.30822
H         32.64494        30.10405         3.59702
O         26.82937        30.19364        -0.17837
H         26.63884        29.44377        -0.78249
O         27.89489        19.43646        -2.52046
H         28.70176        19.83238        -2.91087
O         26.54317        55.16162        -2.33642
H         27.27934        55.55641        -2.84837
O         19.50890        37.64767        -1.26398
H         18.63431        37.92358        -1.64842
O         24.86078        27.37611        -0.86097
H         24.21658        27.00434        -1.50036
O         18.28770        26.79348         2.67112
H         17.43713        26.35578         2.90459
O         24.11451        43.14771        -2.56146
H         24.21254        43.91342        -3.17510
O         26.78062        36.07806         3.10459
H         26.38806        35.40456         3.71271
O          9.42586        35.51903         2.77201
H          8.59075        35.11676         3.11129
H          4.82270        31.26520         0.27810
H          4.76548        33.67495         0.70028
H          7.28807        26.96515        -0.20560
H          6.02037        29.13059         0.19491
H          6.06226        35.82009         0.41800
H          7.25428        37.98519         0.48972
H          9.92509        22.69090        -0.46487
H          8.54654        24.84749        -0.40891
H          8.48797        40.15040         0.58185
H          9.81495        42.36562         0.47866
H         12.38660        18.51372        -0.65269
H         11.16374        20.62929        -0.77352
H         11.94553        44.28473         1.58518
H         12.24325        46.50689        -0.60312
H         14.80661        14.18484        -0.60716
H         13.59032        16.38594        -0.61933
H         13.65366        48.64048        -0.28152
H         14.97560        50.64144         0.05925
H         17.38386        10.00093        -0.11005
H         16.10361        12.06297        -0.29073
H         16.15252        52.80317         0.05835
H         17.34085        54.96717        -0.10464
H         19.76691         5.69525        -0.08167
H         18.54057         7.89601         0.02327
H         18.57188        57.10949        -0.02217
H         19.83397        59.27129        -0.03639
H         23.18272         2.30968        -0.13065
H         21.02294         3.55061        -0.20279
H         23.23346        62.59043         0.42695
H         21.08885        61.42695         0.01296
H         25.34209         3.53590         0.04369
H         26.58935         5.66735         0.20876
H         26.67982        59.26607        -0.00379
H         25.41299        61.40606         0.15848
H         27.85920         7.80437         0.06672
H         29.10691         9.95325        -0.07406
H         29.15893        54.94232        -0.64268
H         27.90439        57.15117        -0.46655
H         30.34110        12.07149        -0.21288
H         31.58392        14.15995        -0.27663
H         31.57202        50.68874        -0.87983
H         30.36845        52.76304        -0.92200
H         32.84767        16.28160        -0.37671
H         34.08802        18.36453        -0.21172
H         34.10778        46.45497        -0.42376
H         32.82918        48.60059        -0.64674
H         35.34016        20.47025         0.00421
H         36.57290        22.57873         0.24615
H         36.32137        42.11969        -0.30285
H         35.32305        44.37534         0.21533
H         37.78960        24.67978         0.28935
H         38.97015        26.84030         0.02391
H         38.78587        37.83775        -0.93348
H         37.70648        40.01357        -0.47841
H         40.08437        28.99500        -0.58857
H         41.26326        31.13423        -0.99578
H         41.21278        33.59910        -1.18245
H         39.94189        35.71215        -1.14708
