         320
 CSIRO Nanostructure Databank - Neutral Graphene Oxide Data Set
C         30.35668        31.43658        -0.76023
C         30.76067        32.63458        -1.07641
C         30.60475        35.90920        -1.29464
C         30.64382        37.13251        -1.46172
C         30.40502        40.35878        -0.94945
C         30.28370        41.57423        -0.76356
C         32.82563        28.76039         0.11503
C         31.74807        29.29719        -0.21726
C         33.16808        31.54212        -0.55552
C         31.34237        30.44895        -0.95234
C         32.95693        32.91768        -0.41767
C         31.73847        33.57753        -0.84250
C         32.85081        35.94909        -0.47215
C         31.81373        35.01719        -1.31324
C         33.07919        37.35747        -1.10686
C         31.72955        38.10853        -1.36888
C         32.78023        40.28812        -0.47021
C         31.63386        39.56241        -1.11125
C         32.68309        41.80108        -0.57532
C         31.27324        42.47546        -0.10259
C         32.58525        44.42772        -0.63517
C         31.45535        43.92405        -0.51318
C         35.43087        27.31074         1.77509
C         35.35023        28.55940         0.88038
C         34.00574        29.33478         0.85495
C         35.17136        31.63665         0.96246
C         34.30318        30.72330         0.04478
C         35.32751        32.99598         0.27026
C         33.98663        33.78728         0.30596
C         35.23512        35.96009         0.42748
C         34.18664        35.17815        -0.36283
C         35.19317        37.47965         0.38768
C         34.04515        38.18128        -0.24229
C         35.06863        40.40893         0.59017
C         33.95290        39.58270        -0.11030
C         35.17207        41.73935        -0.21837
C         33.88790        42.57550         0.01963
C         35.12781        44.63395        -0.82686
C         33.95165        43.99891        -0.59869
C         35.43389        46.01133        -1.01447
C         37.87117        27.32403         2.16338
C         36.54474        26.76112         1.89418
C         37.83059        28.80559         1.88275
C         36.50922        29.45321         1.49804
C         37.80198        31.64772         1.08713
C         36.49971        30.94471         1.33190
C         37.74913        33.07546         0.76229
C         36.56699        33.75306         0.66079
C         37.80512        35.97982         0.61857
C         36.52536        35.23566         0.72754
C         37.83705        37.49062         0.85637
C         36.47549        38.22520         0.69489
C         37.67353        40.42552         0.04761
C         36.50770        39.75559         0.74503
C         37.68975        41.78134        -0.10005
C         36.41789        42.60242         0.08257
C         37.72802        44.72863        -0.56095
C         36.46405        43.85522        -0.85627
C         37.61216        46.21616        -0.13313
C         36.42746        46.75811        -0.94243
C         40.13336        24.62383         1.19597
C         39.09965        25.19357         1.60698
C         40.21402        27.37635         1.11240
C         39.21972        26.63722         2.07035
C         40.22047        28.74559         1.00900
C         39.15949        29.57505         1.75123
C         40.31297        31.75324         1.14652
C         39.00020        30.99303         1.19670
C         40.27566        33.13584         0.49690
C         38.94583        33.76996         0.15794
C         40.10605        35.98957        -0.34123
C         38.93043        35.28684         0.30295
C         40.16388        37.49708        -0.12427
C         39.00522        38.17392         0.13219
C         40.25130        40.38068        -0.18233
C         38.93312        39.64234        -0.12400
C         40.26524        41.82557         0.16745
C         38.96139        42.54757         0.05861
C         40.21211        44.76127         0.37128
C         38.99783        44.02399        -0.20556
C         40.26003        46.24270        -0.01672
C         38.92371        46.96613        -0.25741
C         40.10831        48.92043         0.53396
C         39.04324        48.34212         0.25037
C         42.58069        24.45423         0.41872
C         41.35608        25.02112         0.62726
C         42.61805        27.30562         0.46757
C         41.25155        26.58074         0.30047
C         42.56160        28.74291        -0.09488
C         41.37844        29.51607         0.50214
C         42.77258        31.62156         0.52981
C         41.44563        30.87956         0.59600
C         42.72238        33.05349        -0.03508
C         41.42319        33.79681         0.21094
C         42.71228        35.99636        -0.01177
C         41.43233        35.23910        -0.18344
C         42.63691        37.47776         0.36815
C         41.50115        38.18079        -0.41484
C         42.71743        40.33534         0.05472
C         41.52688        39.65522        -0.09363
C         42.74286        41.80783         0.13230
C         41.56343        42.53184         0.12741
C         42.80408        44.77017         0.16538
C         41.51969        44.02039         0.02960
C         42.82336        46.31635         0.30099
C         41.45024        46.98475         0.49160
C         42.66318        48.88029         1.23871
C         41.40340        48.35284         0.76812
C         43.56144        25.20991        -0.02099
C         44.95626        27.26002        -0.80287
C         43.82756        26.50903        -0.16516
C         45.18063        28.64346        -0.10719
C         43.90644        29.40942         0.07872
C         45.30779        31.51585         0.32207
C         43.96198        30.88458        -0.14407
C         45.29481        33.05339         0.23568
C         43.98978        33.77993         0.43827
C         45.23192        35.97362        -0.14067
C         43.97745        35.27173         0.36350
C         45.23611        37.45964         0.18741
C         43.97260        38.21396         0.22467
C         45.29725        40.32697        -0.01931
C         43.97344        39.58640         0.09855
C         45.22442        41.80920         0.31460
C         44.02332        42.49188         0.27533
C         45.29406        44.68641         0.61839
C         43.96820        43.94634         0.73820
C         45.25866        46.18938         0.91612
C         43.93657        46.79554         1.33433
C         43.75567        48.28975         1.25663
C         47.38388        27.27352        -0.83902
C         46.32447        26.63411        -0.80728
C         47.66020        28.69252        -1.06700
C         46.35145        29.47369        -0.74246
C         47.78660        31.56812        -0.25429
C         46.45058        30.88711        -0.42647
C         47.67530        33.09974        -0.55452
C         46.44423        33.75512         0.05681
C         47.72914        35.97623        -0.19459
C         46.50361        35.26027         0.34626
C         47.70578        37.50596        -0.25219
C         46.43027        38.11381         0.29937
C         47.71152        40.24996         0.96053
C         46.35470        39.54134         0.82856
C         47.74357        41.73841         0.78617
C         46.47726        42.50962         0.55993
C         47.81976        44.55260         1.03749
C         46.53710        43.87877         0.75696
C         47.59798        45.94053         1.33582
C         46.56281        46.60770         1.46052
C         50.11404        28.96192        -1.84737
C         49.00381        29.34673        -0.88219
C         50.24582        31.62468        -0.85870
C         48.91173        30.91397        -1.10318
C         50.23915        33.10372        -0.66160
C         48.97012        33.83683        -0.11817
C         50.14053        36.14425        -0.70885
C         48.88895        35.32460        -0.43232
C         50.15969        37.39758         0.17039
C         48.99618        38.06797         0.34661
C         50.23577        40.20823         0.43834
C         49.02400        39.42871         1.02737
C         50.29877        41.68626         0.90164
C         49.03492        42.44901         0.38615
C         50.35690        44.34607         1.01415
C         49.01071        43.90096         0.90591
C         51.10034        29.64672        -2.14388
C         52.44698        31.92173        -1.93019
C         51.71535        30.75845        -1.40766
C         52.48511        33.12189        -1.61470
C         51.26801        34.00100        -1.41598
C         52.51739        36.27373        -0.81396
C         51.42255        35.26553        -0.57396
C         52.54433        37.38696        -0.28182
C         51.51590        37.94710         0.69999
C         52.55101        40.31768         0.97655
C         51.51336        39.43167         0.81412
C         52.77352        41.57165         1.08052
C         51.67688        42.41400         0.44660
C         51.48676        43.84427         0.89100
O         41.95040        38.02793        -1.83569
O         45.73426        40.35367        -1.45529
O         35.51909        37.91908         1.76575
O         32.52154        30.91740        -1.65755
O         35.54523        35.55024         1.78327
O         43.92462        34.60730         1.65382
O         39.80381        46.64790        -1.34286
O         36.25118        30.31853         2.64325
O         50.68353        32.17840         0.40110
O         37.74261        28.26119         3.25885
O         39.53429        40.04852        -1.42292
O         47.70847        41.15319         2.12827
O         42.29178        35.59714        -1.35526
O         31.89262        39.04864        -2.46716
O         38.73372        44.43438        -1.57856
O         42.30057        44.42882        -1.15391
O         45.35855        45.70550        -0.42896
O         40.81671        38.20503        -2.76463
O         39.51997        42.19112         1.39498
O         46.80465        29.14593        -2.12926
O         50.12591        36.64001        -2.06466
H         49.32916        37.22075        -2.16828
O         36.58859        43.40189        -2.21985
H         37.48758        43.65858        -2.54713
O         43.12402        31.76311         1.93439
H         42.31224        32.07787         2.42141
O         50.10720        40.13796        -0.98328
H         50.80242        40.70140        -1.39327
O         49.01300        33.82298         1.32680
H         49.25524        32.89754         1.58825
O         42.76650        32.98966        -1.47520
H         42.73056        33.91301        -1.82230
O         35.23536        41.27636        -1.58394
H         35.71165        41.95049        -2.13648
O         39.78294        35.88943        -1.77282
H         40.59709        36.14331        -2.27046
O         44.60469        27.50766        -2.17925
H         44.68287        26.66954        -2.68183
O         48.15732        31.36763         1.13142
H         47.32710        31.35653         1.67484
O         45.66562        28.32024         1.22820
H         45.67889        29.16324         1.74386
O         51.55411        34.86938         0.79332
H         52.18251        34.11822         0.84838
O         34.59658        40.63910         1.91431
H         34.74998        39.80691         2.41781
O         46.58559        35.40012         1.78171
H         47.39434        34.90716         2.06062
O         35.60248        32.71383        -1.12858
H         35.64823        33.58100        -1.61136
O         38.16179        37.63767         2.27484
H         37.39426        37.26651         2.76980
O         36.39250        43.08181         1.42696
H         35.95719        42.40376         1.99387
O         33.76550        42.82709         1.41602
H         32.81347        42.83853         1.67401
O         45.80907        39.43045         2.16276
H         46.16750        40.18837         2.68300
O         43.98699        30.98234        -1.58630
H         43.14357        30.61802        -1.93843
O         34.47080        31.88133         2.18374
H         34.70649        31.15866         2.81932
O         51.78578        37.36986         1.96022
H         51.79618        36.38708         1.83874
O         47.73549        37.90414        -1.66183
H         46.82771        38.17399        -1.95211
O         39.70010        29.73826         3.09216
H         39.23395        29.07923         3.67028
O         33.68338        37.21473        -2.41157
H         33.50348        38.06043        -2.89047
O         51.79809        42.37789        -0.96089
H         52.66173        42.76488        -1.21876
O         32.27329        34.92510        -2.66551
H         32.28911        35.83102        -3.05387
O         35.77411        28.13360        -0.38788
H         34.99481        27.97757        -0.96141
O         52.30138        30.25206        -0.24822
H         52.58774        31.00201         0.31462
O         50.32009        41.75571         2.32124
H         49.87328        40.96214         2.70429
O         35.06576        30.26809        -1.07744
H         35.22482        31.04070        -1.66965
O         40.61435        32.10656         2.54315
H         40.35815        31.32351         3.10074
O         37.25488        46.22156         1.23783
H         37.23529        47.14924         1.55525
O         47.49295        33.26194        -1.96995
H         47.26172        34.19724        -2.15398
O         49.45939        29.03238         0.41347
H         50.37444        29.37570         0.52137
O         32.69511        42.03715        -1.99833
H         33.51350        41.61742        -2.35532
O         43.25082        46.83768        -0.96589
H         42.77434        46.34264        -1.66942
O         45.56044        31.15794         1.72333
H         44.78076        31.47814         2.25090
O         40.82387        26.58049        -1.06435
H         41.08008        27.44096        -1.48469
O         49.31747        39.21897         2.42529
H         48.54476        38.79420         2.85335
O         41.14690        39.37384        -3.50010
H         40.65107        40.08582        -3.01795
O         38.77703        33.46519        -1.26917
H         39.17425        34.21388        -1.78449
O         42.26540        37.51970         1.76221
H         43.01761        37.19202         2.30042
O         48.66202        31.11938        -2.49133
H         47.82413        30.66032        -2.73626
O         45.22929        35.82090        -1.58321
H         44.37462        36.15176        -1.93655
O         34.74588        35.04632        -1.68348
H         33.99715        34.88715        -2.32084
O         33.49348        34.09855         1.61256
H         33.53713        33.29350         2.18388
O         49.01927        42.52173        -1.04315
H         49.87239        42.90243        -1.35061
O         42.89341        27.44892         1.85730
H         42.92963        26.56157         2.27212
O         42.29353        28.72203        -1.53806
H         43.08806        28.32102        -1.99242
O         39.84016        26.66523         3.35138
H         39.21150        26.30652         4.01201
O         33.60216        29.54451         2.19334
H         33.73372        28.70470         2.68607
O         32.30163        36.24433         0.80181
H         32.47735        35.48952         1.41759
O         43.66928        46.37621         2.65213
H         42.83593        46.78490         2.96531
O         40.12004        44.78131         1.80901
H         39.91975        43.86118         2.11430
O         43.64980        43.84171         2.15705
H         44.40703        43.42846         2.62238
O         45.26632        39.14901        -2.12540
H         44.75660        39.51533        -2.88991
O         36.89202        40.04672         2.12749
H         37.56927        39.38012         2.40522
O         50.69787        34.25186        -2.68039
H         51.01614        35.11567        -3.02251
O         31.12497        42.39798         1.29438
H         30.28199        42.82268         1.55594
