         620
 CSIRO Nanostructure Databank - Neutral Graphene Oxide Data Set
C         23.02297        27.24597         0.33044
C         22.99914        28.63119         0.31962
C         23.00126        31.55888         0.82102
C         23.00719        32.97356         0.94697
C         22.98159        35.92160         0.89836
C         22.95326        37.32937         0.83595
C         22.96767        40.24057         0.97709
C         23.02682        41.60487         1.21807
C         23.08544        44.55310         1.66082
C         23.16374        45.88847         1.87055
C         25.48313        24.43293         0.70901
C         24.29725        25.11451         0.60508
C         25.44386        27.28877         0.56736
C         24.24607        26.55239         0.50925
C         25.44161        28.69497         0.44389
C         24.19107        29.39079         0.40966
C         25.45022        31.53267         0.74074
C         24.15985        30.82982         0.61341
C         25.46204        33.04207         0.87224
C         24.16530        33.73211         0.88593
C         25.38802        35.86879         0.47862
C         24.16539        35.18004         0.76029
C         25.28752        37.30392         0.13093
C         24.07422        38.06843         0.48936
C         25.32029        40.25587         0.36702
C         24.11925        39.52355         0.58765
C         25.40353        41.64438         0.65871
C         24.23416        42.31252         1.10947
C         25.62621        44.43635         1.54125
C         24.29626        43.71485         1.59930
C         25.63540        45.90818         1.66128
C         24.42965        46.59394         1.92084
C         25.67044        48.67263         2.12187
C         24.46196        47.99079         2.12298
C         28.05960        22.98797         0.71909
C         27.97046        24.41158         0.76559
C         26.74912        25.10047         0.77617
C         27.90866        27.24926         0.20349
C         26.73489        26.60986         0.95701
C         27.91985        28.76156         0.32878
C         26.70394        29.41455         0.36927
C         27.93670        31.62488         0.36086
C         26.64650        30.89096         0.08225
C         27.90059        33.07899         0.37960
C         26.69403        33.77405         0.50064
C         27.85792        35.91483         0.09309
C         26.63528        35.20293         0.35771
C         27.86967        37.43195         0.10600
C         26.52542        38.05103        -0.23046
C         27.78263        40.29576        -0.36159
C         26.48316        39.55618        -0.22794
C         27.80460        41.71580         0.03454
C         26.67205        42.37703         0.49203
C         27.92503        44.53233         0.68740
C         26.76879        43.78075         0.87076
C         28.06033        45.89916         1.15898
C         26.86662        46.60699         1.60026
C         28.18263        48.69830         2.01342
C         26.88434        47.99879         1.88535
C         28.27980        50.16621         2.00520
C         30.52056        23.01861         0.64420
C         29.27180        22.33214         0.69581
C         30.54754        24.42281         0.59122
C         29.26580        25.14940         0.80222
C         30.41648        27.34252         0.06565
C         29.22338        26.62578         0.60399
C         30.41021        28.81894         0.18882
C         29.16890        29.48808         0.28914
C         30.41354        31.67416         0.65104
C         29.13017        30.93408         0.37489
C         30.36347        33.12845         0.22394
C         29.13743        33.80708         0.20213
C         30.32517        35.97563        -0.18313
C         29.07933        35.23986         0.03229
C         30.30177        37.33043        -0.47331
C         28.99385        38.05284        -0.74810
C         30.25152        40.26591        -0.55231
C         29.06770        39.56261        -0.49689
C         30.31019        41.70838        -0.41792
C         29.03557        42.44175        -0.30348
C         30.39336        44.57327         0.08416
C         29.07779        43.93490        -0.00369
C         30.45529        45.93346         0.48411
C         29.28487        46.56962         1.03609
C         30.63034        48.72476         1.20423
C         29.43978        47.93684         1.57439
C         30.68489        50.11813         1.45753
C         29.46750        50.80329         1.84099
C         33.03387        20.21679         0.07220
C         31.84482        20.84367         0.31632
C         33.10229        23.06270         0.45882
C         31.79062        22.26343         0.66612
C         32.99480        24.50305         0.17948
C         31.74809        25.14572         0.31063
C         32.94511        27.35676        -0.10772
C         31.69306        26.58298        -0.05259
C         32.90313        28.77167        -0.05925
C         31.65534        29.51141         0.11667
C         32.83794        31.66394         0.06398
C         31.65398        30.93397         0.19607
C         32.82871        33.10084        -0.01120
C         31.59244        33.83857         0.03411
C         32.81491        35.95302        -0.34528
C         31.58424        35.24698        -0.17016
C         32.82500        37.37533        -0.60767
C         31.53460        38.03880        -0.83561
C         32.79119        40.29000        -0.73399
C         31.51795        39.56779        -0.88301
C         32.78812        41.69604        -0.54905
C         31.52282        42.40949        -0.44040
C         32.80199        44.54922        -0.29007
C         31.55667        43.84741        -0.24554
C         32.83686        45.97084        -0.14999
C         31.66910        46.65450         0.31068
C         32.89261        48.79734         0.25828
C         31.72731        48.05857         0.61277
C         32.97985        50.20021         0.52607
C         31.88530        50.84797         1.17678
C         33.18461        52.92401         1.24126
C         32.04496        52.22319         1.54116
C         35.57222        18.80133        -0.21811
C         35.48762        20.19522        -0.40793
C         34.27248        20.92105        -0.07622
C         35.39514        23.07586        -0.49059
C         34.28166        22.33789        -0.04303
C         35.39568        24.50949        -0.45806
C         34.17567        25.21489        -0.19451
C         35.39607        27.37240        -0.39580
C         34.17181        26.65470        -0.23200
C         35.37398        28.79632        -0.31646
C         34.14308        29.46994        -0.09581
C         35.40335        31.67351        -0.18133
C         34.11571        30.92492         0.09551
C         35.26260        33.08023        -0.61057
C         34.02800        33.81325        -0.27035
C         35.31199        35.93461        -0.37785
C         34.02727        35.21535        -0.36676
C         35.27957        37.44166        -0.49409
C         33.99615        38.12161        -0.72266
C         35.24146        40.29026        -0.73818
C         34.01078        39.56917        -0.80932
C         35.25960        41.68117        -0.52850
C         34.02135        42.39637        -0.45867
C         35.24524        44.55295        -0.34433
C         34.02712        43.83640        -0.39027
C         35.27646        45.95828        -0.51490
C         34.04426        46.68759        -0.43226
C         34.94605        48.96957        -0.97432
C         33.96721        48.13492        -0.39505
C         35.16273        50.30688        -0.61143
C         34.15653        50.93818         0.16575
C         35.37797        53.09247         0.07565
C         34.26711        52.33881         0.50313
C         35.47675        54.49565         0.29572
C         37.80114        18.77437        -1.18564
C         36.69859        18.10652        -0.63701
C         37.80252        20.18892        -1.27179
C         36.61624        20.88361        -0.92359
C         37.80411        23.09087        -1.37503
C         36.52837        22.34276        -1.08873
C         37.86828        24.49334        -0.85487
C         36.60222        25.24097        -0.67225
C         37.85545        27.38403        -0.83063
C         36.62843        26.65580        -0.62086
C         37.83700        28.82442        -0.79372
C         36.61476        29.52901        -0.52281
C         37.82156        31.67182        -0.76583
C         36.61822        30.93335        -0.56129
C         37.83533        33.09412        -0.78941
C         36.56740        33.82439        -0.88951
C         37.79769        35.95561        -0.64984
C         36.57320        35.25996        -0.68315
C         37.79995        37.38443        -0.65997
C         36.54236        38.09554        -0.90897
C         37.79523        40.28673        -0.61079
C         36.53196        39.61156        -0.94808
C         37.75444        41.70171        -0.30369
C         36.52295        42.36215        -0.31801
C         37.75678        44.54562         0.26528
C         36.46750        43.79704         0.00551
C         37.73232        45.98686        -0.04534
C         36.59835        46.60150        -0.54666
C         37.82990        48.77903        -0.74824
C         36.77112        47.93549        -1.05672
C         37.77348        50.23888        -1.01927
C         36.43084        51.00065        -0.98657
C         37.79159        53.15415        -0.66415
C         36.41997        52.52429        -0.87250
C         37.81383        54.54250        -0.46508
C         36.59859        55.20522        -0.06375
C         40.13342        15.93410        -1.06229
C         38.99343        16.55343        -1.43524
C         40.23220        18.72008        -1.92626
C         38.88402        17.99232        -1.89285
C         40.26617        20.20556        -1.79781
C         39.04526        20.91106        -1.58355
C         40.28572        23.03994        -1.61444
C         39.06974        22.32799        -1.52897
C         40.22704        24.54652        -1.87023
C         39.15958        25.23691        -1.01738
C         40.29954        27.40698        -1.25920
C         39.09310        26.71349        -1.06205
C         40.30278        28.89714        -1.42046
C         39.03386        29.55924        -0.96764
C         40.29614        31.69590        -0.84255
C         39.05324        30.96443        -0.87483
C         40.29664        33.10489        -0.77265
C         39.04679        33.81608        -0.77277
C         40.26867        35.97548        -0.76189
C         39.04403        35.24498        -0.73112
C         40.23428        37.38062        -0.68060
C         39.00312        38.10528        -0.63342
C         40.20939        40.24516        -0.13296
C         38.96847        39.55172        -0.52543
C         40.24056        41.71289        -0.09987
C         39.01012        42.41758        -0.08082
C         40.27711        44.50955         0.16849
C         39.04168        43.82057         0.12155
C         40.28166        45.99308         0.32359
C         38.96152        46.76028         0.16305
C         40.24303        48.86087        -0.27629
C         39.02236        48.17676        -0.23211
C         40.25112        50.28583        -0.56257
C         39.03361        50.99133        -0.77309
C         40.26175        53.12251        -0.68539
C         39.01661        52.41300        -0.74823
C         40.27944        54.55025        -0.65793
C         39.05645        55.27809        -0.54889
C         40.30197        57.37311        -0.65921
C         39.09925        56.69127        -0.54440
C         42.50673        16.08287        -0.37950
C         41.41086        16.61231        -1.01559
C         42.81204        18.68003        -1.53451
C         41.50453        17.94557        -1.64488
C         42.80379        20.17483        -1.70651
C         41.50021        20.90702        -1.73245
C         42.72763        23.07180        -1.23994
C         41.49693        22.32181        -1.61115
C         42.73739        24.56227        -1.18195
C         41.60375        25.29631        -1.87096
C         42.75434        27.40713        -1.12035
C         41.54029        26.72912        -1.36738
C         42.71979        28.81204        -0.77068
C         41.54880        29.54969        -0.86865
C         42.72172        31.70622        -0.50735
C         41.53518        30.98381        -0.72176
C         42.75681        33.12860        -0.57981
C         41.52879        33.83445        -0.71708
C         42.77532        35.93868        -0.75654
C         41.53742        35.26104        -0.77071
C         42.80097        37.39827        -0.91321
C         41.48665        38.13439        -0.83284
C         42.76974        40.28009        -0.36691
C         41.51713        39.51491        -0.28821
C         42.73932        41.64506        -0.12624
C         41.48899        42.37852        -0.02436
C         42.76987        44.52536         0.00546
C         41.50204        43.80664         0.07793
C         42.78202        46.01104         0.32015
C         41.50307        46.74966         0.05473
C         42.73367        48.86870        -0.21007
C         41.48679        48.13768        -0.09976
C         42.73770        50.25194        -0.46106
C         41.49088        50.98305        -0.58972
C         42.72509        53.13096        -0.78384
C         41.49618        52.40694        -0.71303
C         42.75654        54.52728        -0.77865
C         41.51967        55.25422        -0.71465
C         42.77624        57.37234        -0.88196
C         41.52472        56.67371        -0.74232
C         43.74732        16.78930        -0.27202
C         45.18084        18.78984        -0.62227
C         43.93795        18.04486        -0.80529
C         45.24337        20.19290        -0.82106
C         44.07880        20.90855        -1.38625
C         45.23618        23.11740        -0.79331
C         44.04826        22.39457        -1.28284
C         45.22439        24.53905        -0.90129
C         44.04687        25.27931        -1.13565
C         45.23177        27.43560        -0.84846
C         44.02609        26.70801        -1.08577
C         45.24617        28.80231        -0.45971
C         43.94546        29.46547        -0.27763
C         45.22975        31.70380        -0.19733
C         43.94790        30.99013        -0.15874
C         45.23751        33.11784        -0.27619
C         43.99776        33.83566        -0.45821
C         45.25672        35.97921        -0.46860
C         44.00834        35.24981        -0.55758
C         45.28008        37.40673        -0.57196
C         44.04530        38.15393        -0.66755
C         45.23143        40.32733        -0.71726
C         43.99784        39.54379        -0.56807
C         45.27447        41.72216        -0.33421
C         44.02296        42.37131         0.20006
C         45.23236        44.53499        -0.39200
C         43.95443        43.84578        -0.10426
C         45.24296        46.04009        -0.41555
C         43.99320        46.75889        -0.13826
C         45.23989        48.85375        -0.29592
C         43.98387        48.14203        -0.18306
C         45.20812        50.27503        -0.45768
C         43.98718        50.93983        -0.59203
C         45.20690        53.10211        -0.44859
C         44.00696        52.38456        -1.04079
C         45.23385        54.58003        -0.76554
C         44.02179        55.26151        -0.83941
C         43.96060        56.69995        -0.94597
C         47.53081        18.80807         0.01156
C         46.35728        18.11733        -0.21133
C         47.58798        20.22261        -0.07544
C         46.40885        20.93457        -0.47604
C         47.60581        23.12016        -0.17844
C         46.41330        22.39177        -0.51901
C         47.70787        24.49979        -0.40323
C         46.53062        25.20473        -0.93787
C         47.73185        27.45121        -0.52045
C         46.52219        26.76171        -0.95268
C         47.71028        28.81374        -0.22983
C         46.44250        29.52010        -0.22492
C         47.63691        31.69135         0.14092
C         46.43280        30.96733        -0.07396
C         47.67018        33.10652         0.11383
C         46.46620        33.83191        -0.15117
C         47.71364        35.97299        -0.12541
C         46.47760        35.26830        -0.24913
C         47.72704        37.39821        -0.23049
C         46.51618        38.09427        -0.48202
C         47.78904        40.28695        -0.37319
C         46.58115        39.53879        -0.71954
C         47.75950        41.69191        -0.30323
C         46.49894        42.40385        -0.29141
C         47.71645        44.56188        -0.11740
C         46.51526        43.83726        -0.20743
C         47.70094        46.00899        -0.06679
C         46.52297        46.73305        -0.19018
C         47.70423        48.91044        -0.23864
C         46.47101        48.17586        -0.19595
C         47.72372        50.25902        -0.57894
C         46.46980        50.98690        -0.65258
C         47.63553        53.07943        -1.40438
C         46.46778        52.35182        -0.81245
C         47.67999        54.51404        -0.92407
C         46.53382        55.21376        -0.72544
C         50.02657        20.27952         0.48606
C         48.80110        20.92325         0.25674
C         50.07983        23.14908         0.52502
C         48.75634        22.38835         0.37059
C         50.12374        24.56528         0.12120
C         48.94758        25.21593        -0.26332
C         50.25727        27.42857        -0.18741
C         48.98612        26.67540        -0.53844
C         50.16321        28.85634         0.18050
C         48.93164        29.50665         0.12742
C         50.14772        31.69616         0.67999
C         48.84795        30.93068         0.49336
C         50.14991        33.15193         0.46103
C         48.92329        33.82986         0.26030
C         50.18741        35.93266         0.11496
C         48.94293        35.24851         0.10116
C         50.21043        37.36518        -0.21198
C         48.95994        38.13283        -0.18800
C         50.23802        40.27360        -0.04418
C         48.99816        39.54131        -0.20108
C         50.21588        41.70378        -0.02564
C         48.98251        42.43250        -0.12025
C         50.22283        44.57864         0.01320
C         48.97226        43.84861        -0.04061
C         50.23687        45.99849         0.02208
C         48.95285        46.70935         0.41405
C         50.24250        48.92614        -0.17989
C         48.95392        48.21678         0.13398
C         50.20855        50.28461        -0.76503
C         48.96779        50.96997        -0.83916
C         50.12878        52.92607        -1.69269
C         48.93915        52.31959        -1.27545
C         51.23798        20.96587         0.62087
C         52.56000        23.07389         0.57471
C         51.33325        22.37155         0.54793
C         52.56773        24.51611         0.61808
C         51.37756        25.25424         0.29175
C         52.61154        27.36175         0.59818
C         51.42786        26.66263         0.26654
C         52.61807        28.80092         0.63010
C         51.38989        29.54179         0.49290
C         52.62653        31.67408         0.63248
C         51.41408        30.95706         0.57580
C         52.63476        33.11669         0.63560
C         51.38993        33.83933         0.49091
C         52.66463        35.97928         0.49046
C         51.41324        35.25797         0.33977
C         52.71291        37.38210         0.41067
C         51.52570        38.12441        -0.04868
C         52.67262        40.27796         0.36676
C         51.45742        39.58036         0.12910
C         52.65258        41.69462         0.28981
C         51.44699        42.41655         0.08869
C         52.69584        44.57391        -0.01972
C         51.45343        43.85486         0.03730
C         52.71760        45.98771        -0.17689
C         51.46462        46.72721        -0.11278
C         52.72192        48.88773        -0.41420
C         51.47362        48.12546        -0.26865
C         52.69309        50.22557        -1.03504
C         51.41075        50.91681        -1.17130
C         51.33972        52.23941        -1.65500
C         54.99203        23.04295         0.81513
C         53.83928        22.39802         0.52112
C         54.95464        24.42575         1.41649
C         53.76476        25.20773         0.90373
C         55.03457        27.32660         1.08864
C         53.80159        26.62277         0.88150
C         55.04726        28.74379         1.06338
C         53.82696        29.48645         0.86968
C         55.03554        31.62779         1.04534
C         53.85382        30.93361         0.82198
C         55.14677        33.07443         0.64675
C         53.84847        33.83188         0.74132
C         55.10881        35.96579         0.98867
C         53.88203        35.25399         0.74676
C         55.14901        37.40253         0.97528
C         53.92091        38.11465         0.63933
C         55.17658        40.22369         0.49254
C         53.89530        39.52257         0.54217
C         55.18549        41.70690         0.55186
C         53.89704        42.45635         0.44922
C         55.14372        44.50165        -0.26902
C         53.93097        43.87045         0.02604
C         55.16251        45.89696        -0.52254
C         53.95993        46.63397        -0.38666
C         55.21102        48.73662        -1.07604
C         54.03503        48.10304        -0.45659
C         55.11743        50.06162        -1.46081
C         53.88887        50.77835        -1.45236
C         57.47726        24.50333         1.51160
C         56.26427        25.18222         1.34935
C         57.49114        27.31624         1.39768
C         56.26150        26.60099         1.27960
C         57.49659        28.75021         1.43218
C         56.27053        29.43533         1.29713
C         57.52353        31.63556         1.65710
C         56.22320        30.88747         1.48148
C         57.52594        33.10353         1.46644
C         56.33978        33.80871         1.20414
C         57.49727        35.92222         1.66666
C         56.31893        35.22819         1.24833
C         57.45762        37.34289         1.85984
C         56.33677        38.09862         1.34767
C         57.57744        40.47610         1.30796
C         56.47056        39.53013         0.97120
C         57.63060        41.77112         0.65062
C         56.44587        42.37775         0.22080
C         57.67109        44.49045        -0.34128
C         56.40471        43.69351        -0.49505
C         57.65289        45.86377        -0.71156
C         56.41354        46.57938        -0.82482
C         57.68090        48.58553        -1.44003
C         56.43438        47.95426        -1.14866
C         58.68941        25.19162         1.57150
C         59.94644        27.32602         1.62986
C         58.71421        26.59668         1.52619
C         59.95985        28.69272         1.63636
C         58.75014        29.46359         1.55765
C         59.98025        31.64734         1.59549
C         58.78411        30.87934         1.57586
C         59.95881        33.02255         1.72906
C         58.74680        33.77801         1.70087
C         59.83886        35.86836         2.43347
C         58.71253        35.20231         1.90210
C         59.73329        37.19436         2.82340
C         58.56023        37.90688         2.55030
C         59.76201        41.00825         2.30623
C         58.60368        40.21550         2.21751
C         59.90983        42.12012         1.47608
C         58.84921        42.54622         0.66496
C         60.09431        44.58658        -0.11541
C         58.87210        43.86733         0.03631
C         60.10601        45.87176        -0.61072
C         58.88885        46.55487        -0.87695
C         58.87278        47.91468        -1.29516
O         35.42153        36.82680         0.82161
O         35.68525        33.32249        -1.98392
O         40.99325        18.09299        -3.01061
O         36.92367        44.10915         1.38664
O         46.74531        25.96118        -2.16186
O         29.36458        26.12525         1.96134
O         36.52678        38.80252        -2.18328
O         56.69992        31.28882         2.83956
O         26.87897        40.09617        -1.53014
O         42.11820        37.92581        -2.12783
O         34.99334        31.41828         1.19129
O         35.78113        48.38676        -1.93769
O         43.12605        19.28490        -2.82597
O         36.85595        22.86892        -2.45547
O         49.20330        22.89744         1.67581
O         29.07189        48.06051         2.99044
O         53.59250        48.77893         0.76978
O         45.94679        39.99737        -1.94860
O         49.34643        31.25739         1.83898
O         37.05301        50.60895        -2.24966
O         25.69056        32.14128         2.03362
O         39.54425        46.48098         1.49754
O         58.48755        39.17228         3.13901
O         42.47337        23.79969         0.03053
O         28.80344        43.44240        -1.36016
O         38.83518        24.61775         0.25912
O         51.05679        37.68221        -1.37510
O         49.66780        48.92702         1.20812
O         25.75640        37.48013        -1.30188
O         56.12346        39.68710        -0.46329
O         54.54854        42.24383         1.77880
O         30.81182        26.83812        -1.26221
O         31.43222        38.76856        -2.11863
O         40.87619        39.60484         1.02648
O         45.17748        45.26829        -1.68378
O         44.38577        21.75915        -2.56121
O         32.65868        22.64660         1.78363
O         43.80019        30.11996         1.02224
O         49.91352        27.11931        -1.58870
O         25.16800        43.79156         2.78804
O         38.42318        17.92982        -3.27499
H         39.22048        17.73071        -3.81851
O         54.71157        24.22816         2.85850
H         53.85088        23.76541         2.94718
O         56.34041        43.33727        -1.93856
H         57.12888        42.78880        -2.14070
O         27.73471        26.94265        -1.20638
H         28.59168        27.09421        -1.66304
O         47.34454        53.13909        -2.85023
H         46.36616        53.16722        -2.95377
O         42.07434        25.39997        -3.23698
H         41.28597        25.34030        -3.82645
O         26.39018        31.01662        -1.35799
H         27.08636        30.51597        -1.83356
O         39.70864        24.67302        -3.23151
H         38.98710        24.02023        -3.36351
O         26.86694        26.88733         2.37416
H         27.74844        26.54047         2.66200
O         45.07386        53.01373         1.00179
H         45.85235        53.45270         1.40382
O         44.15310        42.29797         1.66996
H         43.37967        42.75918         2.06064
O         44.21350        52.37858        -2.49176
H         43.45276        51.91655        -2.90330
O         40.35230        29.13455        -2.88318
H         41.11221        28.62177        -3.23438
O         48.90464        46.56045         1.86942
H         49.41095        47.32324         2.23868
O         30.54646        31.70666         2.12303
H         29.70169        32.04878         2.48667
O         35.98658        53.00169        -2.19136
H         36.43521        52.42249        -2.84977
O         55.43751        33.00389        -0.81705
H         54.61147        32.72107        -1.26600
O         42.89163        46.01170         1.81207
H         41.99109        46.14598         2.18198
O         28.69528        37.83809        -2.14023
H         29.43317        38.23163        -2.65933
O         28.11386        37.83484         1.48739
H         28.88780        37.33316         1.82124
H         22.08482        26.67783         0.25260
H         22.03092        29.14541         0.24723
H         22.02360        31.05725         0.80986
H         22.02977        33.47247         1.00352
H         22.04282        35.40454         1.13663
H         22.00707        37.82743         1.08616
H         22.00876        39.72505         1.11337
H         22.11686        42.12041         1.55229
H         22.10100        44.08613         1.51666
H         22.24314        46.48677         1.94028
H         25.45308        23.33385         0.71806
H         23.35164        24.55491         0.55382
H         25.67453        49.75039         2.33372
H         23.52468        48.53153         2.31584
H         27.14147        22.38591         0.73839
H         27.36786        50.76356         2.14623
H         29.26928        21.23409         0.71730
H         29.47861        51.90124         1.88427
H         33.01604        19.13926        -0.14156
H         30.91085        20.27185         0.22816
H         33.25281        53.97228         1.56083
H         31.24777        52.73119         2.10040
H         34.73769        18.24712         0.23013
H         34.64575        55.03699         0.76847
H         36.71004        17.01364        -0.53749
H         36.60856        56.28982         0.10734
H         40.10707        14.87549        -0.76107
H         38.07514        15.95259        -1.50619
H         40.30840        58.47232        -0.68432
H         38.16891        57.27126        -0.48246
H         42.42602        15.09665         0.09971
H         42.75958        58.47062        -0.93848
H         44.55319        16.30438         0.29534
H         44.89643        57.26578        -1.05208
H         48.42381        18.24156         0.30502
H         46.35482        17.02467        -0.10377
H         48.64834        55.03411        -0.87665
H         46.59637        56.29473        -0.52373
H         50.07143        19.18189         0.48504
H         50.10947        53.95738        -2.07134
H         52.15480        20.37179         0.73797
H         52.24909        52.75812        -1.98538
H         55.94713        22.50397         0.74286
H         53.86979        21.34947         0.19085
H         55.99485        50.57952        -1.87147
H         53.90652        51.79466        -1.86894
H         57.48761        23.40900         1.60633
H         57.69738        49.64484        -1.72902
H         59.63128        24.63661         1.68753
H         60.88734        26.76317         1.71430
H         60.92259        29.21302         1.72896
H         60.95525        31.14289         1.55581
H         60.91898        33.55117         1.80061
H         60.76675        35.31874         2.63543
H         60.55382        37.69493         3.35294
H         60.54745        40.73410         3.02154
H         60.83111        42.71372         1.54310
H         61.04755        44.09595         0.12411
H         61.05953        46.39820        -0.76085
H         59.82610        48.43393        -1.46953
