         324
 CSIRO Nanostructure Databank - Neutral Graphene Oxide Data Set
C          1.40672         2.08295        -0.99057
C          1.25783         3.27765        -0.27642
C          2.61192         1.40181        -1.02116
C          2.43495         4.00652         0.20663
C          1.16772         6.29084         0.01422
C          1.15286         7.63066         0.08876
C          2.40642         5.53297         0.31198
C          2.37356         8.37898         0.47836
C          1.08825        10.68345         0.50835
C          1.07297        12.04545         0.50721
C          2.32770         9.88433         0.65246
C          2.26886        12.85507         0.49128
C          1.09487        15.06274         0.34122
C          1.15814        16.42809         0.19880
C          2.27531        14.25201         0.43016
C          2.40262        17.14502         0.12351
C          2.44609        18.54673        -0.13252
C          3.71783         1.86129        -0.10141
C          3.75189         3.37403        -0.05100
C          5.04651         1.22891        -0.37572
C          4.88696         4.11001        -0.22794
C          3.68710         6.26563         0.14627
C          3.67556         7.68574         0.22106
C          4.88951         5.56525        -0.09328
C          4.88245         8.39855         0.11644
C          3.62245        10.63983         0.51585
C          3.52574        12.10698         0.18871
C          4.89611         9.88266         0.25297
C          4.81286        12.83532        -0.01487
C          3.56456        14.99272         0.56243
C          3.61692        16.44608         0.30419
C          4.87342        14.25476         0.43600
C          4.86388        17.11256         0.19597
C          3.64891        19.20923        -0.24298
C          4.89599        18.52553        -0.09994
C          6.18937         1.95071        -0.56931
C          6.11607         3.44399        -0.81189
C          7.46153         1.29782        -0.66800
C          7.40500         4.16360        -0.50480
C          6.11839         6.28938        -0.20190
C          6.11478         7.70982        -0.08346
C          7.36883         5.57820        -0.36028
C          7.36688         8.44405        -0.20027
C          6.12149        10.59696        -0.24318
C          6.11816        12.10722        -0.21210
C          7.39438         9.86724        -0.19352
C          7.37421        12.83554         0.04858
C          6.14228        14.99605         0.28152
C          6.10431        16.39418         0.30442
C          7.36020        14.22252         0.26893
C          7.35135        17.19167         0.33226
C          6.11424        19.21323        -0.31600
C          7.37154        18.58286        -0.17307
C          8.66327         2.01157        -0.69369
C          8.62213         3.46390        -0.58453
C          9.92075         1.33950        -0.75520
C          9.86262         4.17404        -0.53749
C          8.58918         6.31244        -0.41292
C          8.57204         7.72531        -0.38813
C          9.84171         5.59576        -0.49859
C          9.77728         8.48233        -0.88653
C          8.61362        10.62484        -0.30656
C          8.60306        12.08759        -0.12502
C          9.81621         9.93417        -0.46667
C          9.80348        12.78021        -0.16078
C          8.63014        14.94653         0.47967
C          8.66108        16.44660         0.36822
C          9.90971        14.19387         0.22595
C          9.80426        17.09255        -0.29435
C          8.60850        19.22494        -0.36300
C          9.86352        18.52561        -0.40948
C         11.14368         2.02655        -0.73477
C         11.10603         3.47914        -0.63783
C         12.40299         1.35503        -0.74100
C         12.30855         4.19567        -0.56978
C         11.06740         6.29394        -0.44317
C         11.10207         7.76025        -0.66316
C         12.28077         5.59075        -0.38543
C         12.36559         8.50809        -0.36374
C         11.09878        10.64295        -0.60209
C         11.06490        12.13450        -0.51511
C         12.37722         9.97714        -0.25371
C         12.30001        12.86334        -0.08352
C         11.04608        14.94660        -0.36253
C         10.82114        16.25477        -0.78956
C         12.32722        14.28918        -0.52475
C         12.65158        17.31521        -0.78021
C         11.10399        19.23754        -0.46438
C         12.41555        18.67654        -0.39765
C         13.63767         2.03691        -0.73599
C         13.61644         3.53741        -0.92039
C         14.88987         1.39649        -0.74538
C         14.82827         4.22719        -0.34079
C         13.50653         6.28527         0.06626
C         13.52051         7.77442         0.22360
C         14.79335         5.58497         0.00183
C         14.80430         8.49404         0.34923
C         13.53692        10.64333         0.07208
C         13.55200        12.12650         0.19144
C         14.78452         9.94171         0.34234
C         14.83184        12.87489         0.28687
C         13.72106        15.05726        -0.40612
C         13.70471        16.53122        -0.29749
C         14.84899        14.31960         0.20621
C         14.82170        17.22614         0.25817
C         13.58621        19.37000         0.02348
C         14.79766        18.68157         0.24555
C         16.12886         2.12181        -0.66701
C         16.05936         3.54104        -0.38391
C         17.39353         1.50736        -0.73646
C         17.25560         4.25951        -0.12037
C         15.98079         6.30695         0.31770
C         15.97246         7.75594         0.50783
C         17.20357         5.62115         0.28508
C         17.23701         8.46827         0.57388
C         15.93882        10.67554         0.63070
C         15.94055        12.11468         0.67886
C         17.21793         9.92770         0.96790
C         17.16900        12.82542         1.06791
C         15.94813        15.07014         0.70169
C         15.95866        16.49984         0.68437
C         17.14451        14.32938         1.17116
C         17.17436        17.28144         1.01894
C         16.02728        19.38816         0.41235
C         17.23022        18.71913         0.65110
C         18.63122         2.23034        -0.62646
C         18.51353         3.64579        -0.40815
C         19.86546         1.49934        -0.54920
C         19.62627         4.54838        -0.42862
C         18.43408         6.31119         0.81411
C         18.42976         7.79927         0.53760
C         19.69812         5.70782         0.29312
C         19.71141         8.50163         0.26358
C         18.43997        10.68899         0.52313
C         18.49129        12.09486         0.87771
C         19.69353        10.01718         0.19159
C         19.64850        12.90814         0.34573
C         18.48335        15.04909         1.26007
C         18.49326        16.54949         1.18619
C         19.72655        14.33440         0.86809
C         19.74358        17.23834         0.83605
C         18.48609        19.37166         0.68096
C         19.71997        18.68186         0.75877
C         21.14659         1.99891        -0.13625
C         21.40247         3.41127        -0.22371
C         22.22428         1.23604         0.39283
C         22.22675         4.09192         0.68598
C         20.95954         6.38051         0.70021
C         21.01692         7.85917         0.51746
C         22.20096         5.58708         0.93042
C         22.19301         8.57730         0.53703
C         20.97684        10.74079         0.35496
C         20.95746        12.14669         0.39316
C         22.21619        10.03612         0.39950
C         22.15133        12.85892         0.22230
C         20.86207        15.05113         0.57624
C         20.90847        16.50847         0.62637
C         22.06107        14.33079         0.06938
C         22.17776        17.20501         0.50291
C         20.96320        19.35863         0.70407
C         22.18306        18.66120         0.63797
C         23.31274         1.89407         1.07422
C         23.04327         3.26464         1.44731
C         24.58555         1.35881         1.32089
C         24.84187         4.38485         1.77949
C         23.50163         6.34274         0.80896
C         23.49424         7.84283         0.60167
C         24.76672         5.66739         1.20438
C         24.78894         8.60043         0.82127
C         23.43568        10.76444         0.29525
C         23.39013        12.17387         0.10496
C         24.77403        10.10532         0.49402
C         24.60391        12.93561        -0.17548
C         23.34824        15.09679        -0.07017
C         23.36119        16.52085         0.30203
C         24.61025        14.33305        -0.14824
C         24.68485        17.17220         0.61075
C         23.41576        19.35019         0.56672
C         24.64863        18.67698         0.45091
C         25.79605         2.04441         1.98421
C         25.93876         3.53338         1.64261
C         27.06501         1.29250         1.62276
C         27.14516         4.14362         1.24983
C         25.96688         6.27020         0.79309
C         26.00110         7.72447         0.64433
C         27.18247         5.51190         0.87566
C         27.27004         8.22439         0.56605
C         25.94927        10.86237        -0.06888
C         25.82354        12.20625        -0.45178
C         27.26887        10.25989        -0.09507
C         26.98378        12.97052        -0.89559
C         25.83058        15.08119        -0.29890
C         25.86731        16.51407        -0.06694
C         26.98672        14.38829        -0.67707
C         27.02069        17.25299        -0.24416
C         25.85234        19.36547         0.31745
C         27.07660        18.67801         0.05269
C         28.26016         1.88459         1.33774
C         28.38613         3.36379         1.33259
C         29.46604         1.13208         1.03370
C         29.67165         4.01121         0.85087
C         28.42514         6.09668         0.42699
C         28.29786         7.45254        -0.20338
C         29.60804         5.39555         0.33900
C         29.57764         8.17656        -0.54327
C         28.24040        10.28116        -1.07205
C         28.10686        12.39412        -1.53039
C         29.49574         9.49936        -1.07600
C         29.40420        13.01436        -1.54669
C         28.21024        15.14105        -0.98993
C         28.24079        16.62802        -0.78935
C         29.49515        14.38309        -0.99296
C         29.54567        17.31529        -0.63908
C         28.28987        19.35618        -0.01951
C         29.53347        18.69588        -0.30785
C         30.62270         1.71642         0.59503
C         30.75460         3.13651         0.37452
C         31.81205         3.72862        -0.29143
C         30.78058         5.97643        -0.27972
C         30.76365         7.40347        -0.65892
C         31.84895         5.13001        -0.55488
C         31.90999         8.01341        -1.21202
C         30.63633        10.00588        -1.74588
C         30.57936        12.41618        -1.98542
C         31.83967         9.28723        -1.76769
C         31.80438        13.15941        -2.09655
C         30.79334        15.15791        -1.05499
C         30.76496        16.64792        -0.88927
C         31.90532        14.46988        -1.72369
C         31.96262        17.37874        -0.83562
C         30.75796        19.40358        -0.26966
C         31.95227        18.74896        -0.54411
O         30.33047        14.49712         0.19707
O         23.64200         6.92248        -0.53841
O         17.78744        17.10985         2.33967
O         23.73799         3.84494         2.49221
O          8.14183        17.08505         1.57309
O         27.97928        11.13582        -2.17297
O          9.46514        14.47735         1.59332
O         17.93085        12.31866         2.21931
O         19.66779         9.18755        -1.04343
O         27.58547         9.48673         1.04590
O         13.22501         6.93463         1.38428
O         22.48205        14.81200        -1.25276
O          2.28766         8.99061         1.81352
O         11.16325        11.50281        -1.82440
O         11.74526        16.78358        -1.70581
O         30.58251        11.14276        -2.57219
O          3.94236        12.54723        -1.16090
O         12.64657        12.60925         1.30500
O          6.06384        11.37349        -1.48671
O         12.06295         8.07637        -1.74817
O         28.06971        16.04284        -2.14490
O         20.75328         4.14116        -1.19076
O         24.84379         9.57569         1.88967
O         21.39187         5.96517         2.07600
O         29.36613         3.88691         2.28509
O         17.74248        14.67748         2.45826
O         13.18876        14.52654        -1.65944
O          2.30284         4.68793         1.50646
O          4.29296        14.51407         1.75803
O          4.55295        10.36651         1.60818
O         25.61878         1.92034         3.42275
H         24.83569         2.46478         3.66239
O         18.42773         6.17571         2.27025
H         17.71047         6.74475         2.62321
O          5.94134         3.59504        -2.26753
H          6.75155         3.24797        -2.69809
O         17.26135         9.81464         2.44100
H         17.38072        10.73578         2.79182
O         24.89653        16.92930         2.05276
H         24.22254        17.45013         2.53979
O          3.33641         1.39565         1.23896
H          2.55785         1.92095         1.52407
O          9.58005         8.53896        -2.33631
H         10.45886         8.75566        -2.72744
O         13.73579         3.74349        -2.37703
H         14.53584         3.25948        -2.67450
O         27.65418         7.22002        -1.51591
H         28.26604         6.67350        -2.05377
O         19.31054        13.06234        -1.07447
H         20.09983        13.41562        -1.54034
H          0.52947         1.65792        -1.50176
H          0.25887         3.71278        -0.14152
H          2.70159         0.44705        -1.55809
H          0.24407         5.74126        -0.21628
H          0.21846         8.18412        -0.08288
H          0.13071        10.14497         0.55163
H          0.09764        12.55367         0.51470
H          0.10954        14.57554         0.34525
H          0.22524        17.00252         0.10081
H          1.50092        19.09557        -0.25295
H          5.10590         0.13422        -0.26991
H          3.66266        20.28829        -0.45492
H          7.48774         0.19731        -0.64905
H          6.07455        20.27178        -0.61497
H          9.92072         0.24021        -0.81230
H          8.61074        20.30686        -0.56757
H         12.40468         0.25353        -0.72397
H         11.03210        20.32993        -0.33279
H         14.92796         0.29607        -0.77568
H         13.55565        20.46040         0.16572
H         17.44083         0.41681        -0.88225
H         16.03314        20.47897         0.26743
H         19.76048         0.40196        -0.55753
H         18.50972        20.46402         0.54686
H         22.22414         0.14153         0.30161
H         20.97600        20.45874         0.70941
H         24.75246         0.31878         0.99576
H         23.40761        20.45070         0.54295
H         27.00966         0.19203         1.64301
H         25.85937        20.46532         0.36168
H         29.42387         0.03767         1.14005
H         28.31150        20.43659         0.18761
H         31.48443         1.07859         0.34632
H         32.65003         3.10880        -0.64246
H         32.74682         5.52160        -1.05242
H         32.85757         7.46207        -1.27146
H         32.71457         9.71893        -2.27124
H         32.65758        12.66277        -2.57951
H         32.81900        15.03161        -1.96548
H         32.92310        16.87397        -1.00860
H         30.75594        20.47359        -0.01813
H         32.90136        19.30164        -0.51139
