         342
 CSIRO Nanostructure Databank - Neutral Graphene Oxide Data Set
C          1.18318         2.05750         0.55102
C          1.16306         3.46104         0.44434
C          2.37954         1.36788         0.57519
C          2.34927         4.20230         0.35617
C          1.15534         6.39817         0.24666
C          1.15609         7.79062         0.12515
C          2.34723         5.65867         0.24942
C          2.34705         8.51862         0.01130
C          1.21728        10.72715         0.00559
C          1.22003        12.13377        -0.23969
C          2.33999         9.96045        -0.17874
C          2.36911        12.82051        -0.55993
C          1.13992        15.04345        -0.46722
C          1.19341        16.36495        -0.16539
C          2.35101        14.28405        -0.94006
C          2.44171        17.07842        -0.16877
C          2.48015        18.49954         0.10046
C          3.61585         2.07198         0.48846
C          3.59850         3.50406         0.37224
C          4.84310         1.38185         0.52781
C          4.82904         4.21298         0.27639
C          3.58886         6.36572         0.14938
C          3.59544         7.79935         0.04214
C          4.82186         5.65544         0.16905
C          4.82356         8.49789        -0.02171
C          3.61552        10.60106        -0.69601
C          3.62703        12.12264        -0.65593
C          4.81730        10.00994         0.04842
C          4.82406        12.80744        -0.80318
C          3.65595        14.98658        -0.63123
C          3.63983        16.36850        -0.39599
C          4.89257        14.26317        -0.74368
C          4.90326        17.17890        -0.52561
C          3.64656        19.14489         0.34866
C          4.92988        18.35351         0.44820
C          6.07244         2.07241         0.44674
C          6.05636         3.50429         0.29926
C          7.31080         1.38547         0.51575
C          7.30216         4.20458         0.20882
C          6.04721         6.36353         0.06716
C          6.04783         7.79372        -0.04191
C          7.29140         5.65521         0.05050
C          7.29372         8.49566        -0.17506
C          6.10371        10.63468        -0.42521
C          6.08476        12.02497        -0.89555
C          7.29621         9.93255        -0.38245
C          7.41770        12.76032        -0.97873
C          6.13269        14.95043        -0.69471
C          6.17691        16.36523        -0.47990
C          7.44701        14.27929        -1.09157
C          7.36207        17.07277        -0.35743
C          6.18808        19.15409         0.24424
C          7.35839        18.50729        -0.07381
C          8.53771         2.08063         0.46920
C          8.50648         3.50795         0.31973
C          9.78883         1.39931         0.52786
C          9.78614         4.29409         0.44056
C          8.48671         6.35254        -0.14236
C          8.50213         7.77283        -0.23642
C          9.73512         5.54946        -0.42075
C          9.76606         8.47734        -0.29925
C          8.56507        10.63433        -0.43793
C          8.61617        12.03874        -0.52625
C          9.77833         9.90056        -0.26907
C          9.80301        12.74370        -0.15883
C          8.66969        14.91579        -0.45437
C          8.70916        16.42375        -0.57562
C          9.78811        14.20951        -0.08283
C          9.72449        17.04839         0.37444
C          8.62357        19.21812        -0.03241
C          9.81059        18.54493         0.15899
C         11.02683         2.07649         0.35266
C         11.03687         3.48820         0.18258
C         12.27447         1.38537         0.29002
C         12.23644         4.17237        -0.06445
C         11.02257         6.32719        -0.31606
C         10.99600         7.77055        -0.33167
C         12.20292         5.61248        -0.26920
C         12.21211         8.50441        -0.28158
C         10.99821        10.61128        -0.06259
C         10.97292        12.02355         0.10444
C         12.23405         9.89195        -0.06353
C         12.14073        12.69587         0.78311
C         11.04087        14.89669         0.28394
C         11.04997        16.34101         0.32776
C         12.22173        14.18013         0.49086
C         12.20460        17.05319         0.57522
C         11.06502        19.20927         0.28533
C         12.24796        18.50705         0.52849
C         13.47581         2.06299         0.09402
C         13.48021         3.47185        -0.08564
C         14.76471         1.27330         0.00957
C         14.73577         4.20846        -0.13131
C         13.47700         6.29894        -0.51342
C         13.47731         7.80435        -0.50981
C         14.73490         5.58460        -0.26139
C         14.75602         8.53137        -0.36741
C         13.49579        10.59193         0.05828
C         13.47801        11.96498         0.61004
C         14.71351         9.96881        -0.19051
C         14.76958        12.73520         0.62315
C         13.47635        14.86012         0.70427
C         13.42526        16.31636         0.92228
C         14.71220        14.21246         0.70631
C         14.72461        17.08125         1.04789
C         13.50971        19.18845         0.58985
C         14.72657        18.53706         0.75885
C         16.03283         2.09969         0.10017
C         16.00055         3.51026         0.01046
C         17.25461         1.42993         0.20097
C         17.23328         4.25604        -0.01387
C         15.94758         6.39973         0.08990
C         15.93062         7.82879        -0.39197
C         17.24294         5.67550        -0.11129
C         17.19791         8.52856        -0.77129
C         15.98274        10.68838        -0.18389
C         16.00327        12.10788         0.09799
C         17.15811        10.00405        -0.46231
C         17.17507        12.85706         0.03428
C         15.96965        14.93260         0.75302
C         15.96742        16.32073         0.90028
C         17.21526        14.23303         0.46812
C         17.20474        17.08288         1.06914
C         15.98261        19.20755         0.67022
C         17.19857        18.54191         0.83312
C         18.49161         2.12773         0.15852
C         18.47311         3.55839         0.02812
C         19.73197         1.45734         0.23822
C         19.69520         4.28977        -0.01768
C         18.45359         6.40458        -0.13393
C         18.46926         7.84869        -0.32713
C         19.68286         5.70229        -0.06574
C         19.66506         8.54294        -0.44943
C         18.37515        10.74616        -0.80223
C         18.37873        12.24587        -0.57668
C         19.67873         9.97002        -1.01364
C         19.73022        12.95389        -0.53570
C         18.45763        14.91548         0.49903
C         18.51953        16.32512         0.93928
C         19.67947        14.29509         0.15135
C         19.73268        17.10818         0.66376
C         18.45598        19.20588         0.73905
C         19.67360        18.53038         0.67638
C         20.95507         2.15167         0.07710
C         20.94223         3.58197        -0.09777
C         22.20008         1.48888         0.15991
C         22.14347         4.28818        -0.38347
C         20.97122         6.44646         0.14719
C         20.92989         7.88061        -0.32413
C         22.18081         5.68279        -0.34558
C         22.14053         8.53201        -0.57762
C         20.89042        10.70646        -0.52468
C         20.81590        12.05416         0.11864
C         22.20181        10.03815        -0.76584
C         22.15198        12.78163         0.17449
C         20.91461        14.97120         0.31297
C         20.93552        16.40250         0.46644
C         22.15157        14.24051         0.28856
C         22.17822        17.11502         0.37287
C         20.94157        19.34990         0.54705
C         22.21010        18.54059         0.37802
C         23.41759         2.12884        -0.20953
C         23.30148         3.47344        -0.93151
C         24.61775         1.47599        -0.05400
C         24.61654         4.25165        -0.96604
C         23.39839         6.41306        -0.56109
C         23.37379         7.83073        -0.59364
C         24.63183         5.70862        -0.73829
C         24.64502         8.60161        -0.87691
C         23.30870        10.57064         0.16076
C         23.31722        12.07526         0.20966
C         24.63415         9.95893        -0.21714
C         24.57603        12.72342         0.71848
C         23.36767        14.93666         0.37999
C         23.39323        16.38133         0.32031
C         24.61723        14.20847         0.42654
C         24.61994        17.08444         0.28284
C         23.41916        19.20618         0.22753
C         24.65452        18.49826         0.15751
C         25.91148         1.95593        -0.66878
C         25.92473         3.48019        -0.80354
C         27.12780         1.39186         0.02858
C         27.08028         4.25652        -0.34699
C         25.87477         6.39544        -0.71014
C         25.90888         7.82106        -0.59635
C         27.08580         5.62632        -0.49468
C         27.10726         8.53925        -0.38012
C         25.84933        10.63980         0.02249
C         25.85264        11.99021         0.40515
C         27.11725         9.92047        -0.09102
C         27.12755        12.72397         0.70319
C         25.81307        14.86794         0.32989
C         25.87046        16.33650         0.39714
C         27.07118        14.11756         0.09918
C         27.17786        17.06891         0.11520
C         25.88984        19.17344        -0.10744
C         27.10405        18.49979        -0.23889
C         28.20770         2.10678         0.40577
C         28.19508         3.61253         0.43666
C         29.40491         1.49098         0.98352
C         29.53789         4.24875         0.17030
C         28.38474         6.33389        -0.45072
C         28.40349         7.83187        -0.46838
C         29.60732         5.59778        -0.04894
C         29.64756         8.51045        -0.04979
C         28.36345        10.60390         0.15018
C         28.39047        11.99042         0.34516
C         29.61624         9.86652         0.19066
C         29.63557        12.72918         0.22785
C         28.35053        14.83599        -0.19376
C         28.37995        16.30680        -0.23942
C         29.63735        14.12362        -0.05010
C         29.55066        16.97468        -0.55968
C         28.31030        19.12202        -0.66530
C         29.51157        18.41273        -0.77583
C         30.59605         2.11850         0.96810
C         30.78335         3.39852         0.19251
C         31.99488         4.20632         0.57313
C         30.85854         6.33395         0.07278
C         30.86937         7.73292         0.07048
C         32.03117         5.55117         0.43596
C         32.09780         8.49207         0.24825
C         30.82888        10.58498         0.74760
C         30.87200        12.03547         0.29417
C         32.09686         9.81307         0.51622
C         32.06050        12.74437         0.08478
C         30.83885        14.82311        -0.30852
C         30.80579        16.25200        -0.65894
C         32.05011        14.10495        -0.22463
C         31.94101        16.95645        -1.02379
C         30.72556        19.06632        -1.16154
C         31.89257        18.35280        -1.29069
O         27.50653        14.22398        -1.29048
O         18.10849        11.69952        -1.90907
O         17.94929        16.62735         2.25554
O         13.95196        16.71650         2.24526
O         25.44776         3.89750        -2.13480
O         26.74371        16.78962         1.50683
O         14.27746        12.05284         1.85119
O         13.47357         7.05409        -1.79546
O         28.58570         7.07256        -1.71917
O          6.81257        12.17290        -2.18194
O         15.83594         6.55929         1.57393
H         16.01576         5.68089         1.97380
O          4.98661        17.80240         1.79786
H          5.11219        18.54414         2.42512
O          9.20685        16.82751         1.71848
H          9.88685        17.12525         2.35866
O         14.77894         0.22730         0.99273
H         14.77383         0.64158         1.87954
O         20.80987        20.29228        -0.53330
H         20.75424        19.78878        -1.37116
O         11.80563        12.62645         2.20317
H         12.66591        12.61816         2.68814
O          9.13627        16.74005        -1.92704
H          8.61694        16.15827        -2.53268
O          9.87043         4.74321         1.83073
H          9.86128         3.94691         2.40215
O         24.68929         8.83687        -2.33834
H         25.03505         8.02082        -2.75927
O         30.63879        10.63585         2.20690
H         29.77223        11.06773         2.36828
O         24.44211        12.60800         2.19505
H         25.33068        12.83833         2.56860
O         20.16184        13.21226        -1.88678
H         19.66377        12.58636        -2.46741
O         21.13278         6.53190         1.62365
H         21.10740         5.61378         1.96888
O         17.26821         8.46511        -2.26361
H         16.40324         8.77436        -2.61188
O         22.96015        10.14407         1.52146
H         23.51609        10.68596         2.13115
O         22.58115        10.38943        -2.11990
H         21.82819        10.13738        -2.70348
O         31.00040         2.97639        -1.20339
H         31.07875         3.78993        -1.74609
O         19.83261         9.77750        -2.46105
H         19.01696         9.29783        -2.75399
O         25.94583         1.37452        -2.00629
H         25.64049         2.07578        -2.62802
O          2.25756        14.28058        -2.42191
H          2.19985        15.21774        -2.70694
O         27.17048        12.94461         2.17543
H         27.83090        13.64769         2.35828
O          9.63429         5.10136        -1.80443
H          9.70509         5.88786        -2.38474
O         22.93394         3.17249        -2.30490
H         23.76733         3.16438        -2.82872
O          3.76354        10.20721        -2.08573
H          3.06839        10.66235        -2.60524
O          7.56425        14.58821        -2.52661
H          7.16524        13.81352        -2.99656
O          4.85764        17.76123        -1.86552
H          5.01531        17.04050        -2.51067
O         27.90180         3.92556         1.85286
H         28.02132         4.89085         1.97950
O         20.39024        11.82919         1.50025
H         21.07244        11.24981         1.91479
O          4.64829        10.38135         1.45155
H          5.36326         9.95233         1.96692
H          0.23166         1.51140         0.61705
H          0.18827         3.96661         0.43015
H          2.39172         0.27194         0.66161
H          0.18637         5.88725         0.32459
H          0.18855         8.31037         0.09351
H          0.27741        10.27203         0.34897
H          0.26140        12.66067        -0.14662
H          0.16101        14.54546        -0.50410
H          0.27473        16.91149         0.09637
H          1.52401        19.04486         0.12965
H          4.84340         0.28663         0.63255
H          3.65253        20.21728         0.59801
H          7.31119         0.28971         0.61544
H          6.20847        20.21640         0.53657
H          9.79077         0.30475         0.63949
H          8.60871        20.31879        -0.06159
H         12.29135         0.29261         0.41523
H         11.09858        20.30451         0.17838
H         14.77716         0.75285        -0.98971
H         13.50901        20.27866         0.43641
H         17.25782         0.33344         0.28573
H         15.98783        20.28891         0.46462
H         19.74803         0.36580         0.37322
H         18.46244        20.30298         0.65557
H         22.23094         0.43881         0.48848
H         21.04878        19.96996         1.47937
H         24.61251         0.46363         0.38095
H         23.42677        20.30474         0.17524
H         27.16552         0.29229         0.08329
H         25.85903        20.25759        -0.29408
H         29.30630         0.49244         1.43737
H         28.29968        20.19711        -0.90032
H         31.48535         1.63980         1.40532
H         32.90473         3.66225         0.86949
H         32.96589         6.08157         0.66743
H         33.06032         7.97176         0.14122
H         33.05723        10.32762         0.66317
H         33.02974        12.23155         0.15009
H         33.00839        14.61195        -0.39975
H         32.91120        16.44820        -1.10819
H         30.71061        20.14983        -1.34770
H         32.81881        18.86543        -1.58609
