         324
 CSIRO Nanostructure Databank - Neutral Graphene Oxide Data Set
C          1.17679         2.01462         0.60309
C          1.14180         3.43517         0.69322
C          2.34040         1.32286         0.75615
C          2.32280         4.18871         0.79114
C          1.12534         6.39972         0.78484
C          1.11319         7.79736         0.67007
C          2.31223         5.64745         0.70599
C          2.26226         8.51671         0.32742
C          1.08114        10.68628         0.06860
C          1.08034        12.06862        -0.01823
C          2.28583         9.95336         0.16820
C          2.27536        12.81566         0.08427
C          1.07896        14.98263        -0.67867
C          1.11176        16.31143        -0.97006
C          2.20531        14.31042         0.00293
C          2.31865        17.10443        -0.87840
C          2.36063        18.45985        -1.29603
C          3.60615         2.02918         1.13517
C          3.57250         3.51325         0.85864
C          4.84572         1.36741         0.60978
C          4.80003         4.22512         0.82998
C          3.54720         6.33134         0.51974
C          3.49755         7.74991         0.13564
C          4.79041         5.67350         0.66406
C          4.82839         8.53156         0.06948
C          3.52331        10.68342         0.17902
C          3.49349        12.11733         0.23554
C          4.77818         9.99389         0.22285
C          4.77254        12.82519         0.45785
C          3.49745        15.11628         0.07525
C          3.53598        16.45932        -0.54424
C          4.79305        14.40448         0.31268
C          4.75630        17.11036        -0.77652
C          3.55954        19.14955        -1.36710
C          4.79767        18.49102        -1.12453
C          6.04087         2.07450         0.58844
C          6.01710         3.50141         0.81826
C          7.30564         1.43497         0.36432
C          7.28273         4.19206         1.05608
C          6.01383         6.41723         0.65568
C          6.05749         7.80237         0.42095
C          7.26776         5.73645         1.02985
C          7.28613         8.54175         0.46186
C          6.01361        10.68083         0.26385
C          6.03910        12.12099         0.26615
C          7.23886         9.94304         0.28448
C          7.24458        12.85802         0.18075
C          6.02754        14.99446        -0.15371
C          6.04049        16.34892        -0.81447
C          7.23573        14.28856        -0.03263
C          7.22255        17.20418        -0.22868
C          6.04691        19.20182        -1.16377
C          7.26428        18.61599        -0.80169
C          8.52926         2.11477         0.44801
C          8.55686         3.52264         0.78332
C          9.76274         1.43299         0.24593
C          9.75711         4.24044         0.83263
C          8.55694         6.41000         0.84355
C          8.55208         7.83470         0.61861
C          9.74667         5.68147         0.95325
C          9.77319         8.51575         0.54817
C          8.48537        10.69245         0.07996
C          8.50045        12.17169         0.13169
C          9.77246         9.94537         0.21352
C          9.70410        12.86307        -0.01868
C          8.48451        14.96388        -0.27058
C          8.47726        16.41547        -0.58763
C          9.68640        14.27178        -0.23835
C          9.74582        17.19708        -0.60030
C          8.48869        19.32841        -0.72615
C          9.73637        18.68076        -0.50580
C         10.99682         2.09171         0.34415
C         11.01386         3.52787         0.61798
C         12.21506         1.39698         0.12052
C         12.22228         4.18808         0.63185
C         11.03204         6.41625         1.00820
C         11.04109         7.86563         0.69971
C         12.31273         5.64601         0.84595
C         12.24668         8.54890         0.49627
C         11.01694        10.71544         0.47992
C         11.01130        12.18249         0.19746
C         12.26108         9.96673         0.26927
C         12.28530        12.79918        -0.21359
C         10.96895        14.99367        -0.45467
C         10.95744        16.46080        -0.15181
C         12.26229        14.25825        -0.43385
C         12.22037        17.21248         0.08644
C         10.96501        19.34437        -0.37194
C         12.22745        18.67322        -0.20512
C         13.47773         2.02234         0.21702
C         13.49502         3.44802         0.60181
C         14.69171         1.36732        -0.03286
C         14.80919         4.21492         0.47141
C         13.45393         6.36865         0.15195
C         13.58818         7.83197         0.63058
C         14.79160         5.66442         0.22007
C         14.64608         8.47734        -0.24426
C         13.38448        10.62340        -0.23056
C         13.46719        12.07883        -0.37940
C         14.40015         9.72868        -0.73284
C         14.74691        12.80262        -0.57224
C         13.53470        14.96089        -0.09436
C         13.52203        16.45368         0.10771
C         14.78662        14.22172        -0.41656
C         14.74725        17.20460        -0.14822
C         13.44976        19.32056        -0.28027
C         14.72363        18.61796        -0.21462
C         15.95233         2.04782        -0.07569
C         16.00650         3.47449         0.06281
C         17.14844         1.35819        -0.35779
C         17.20941         4.18700        -0.10759
C         15.94520         6.31735        -0.15324
C         15.88907         7.74348        -0.57438
C         17.21428         5.62138        -0.18750
C         17.23774         8.50256        -0.76393
C         16.18385        10.78468        -1.05852
C         16.02423        12.15443        -0.69871
C         17.28581         9.98975        -0.70437
C         17.24403        12.85754        -0.46882
C         15.98801        14.95211        -0.41118
C         15.98616        16.46233        -0.58415
C         17.24263        14.28279        -0.41104
C         17.22581        17.11313        -0.01174
C         15.94738        19.32218        -0.27818
C         17.20880        18.67071         0.06005
C         18.41322         2.01286        -0.32982
C         18.44702         3.45876        -0.15274
C         19.59782         1.30084        -0.56581
C         19.64979         4.16640        -0.06279
C         18.43939         6.33304        -0.28173
C         18.48348         7.76741        -0.41694
C         19.67203         5.60758        -0.12200
C         19.69000         8.46456        -0.25662
C         18.47474        10.67795        -0.36243
C         18.46709        12.11744        -0.36290
C         19.71315         9.93122        -0.27222
C         19.67932        12.84498        -0.25133
C         18.49092        14.99745        -0.38646
C         18.51824        16.43770        -0.24431
C         19.69734        14.25274        -0.35175
C         19.69513        17.16867        -0.15155
C         18.50415        19.33167         0.02290
C         19.70981        18.61092         0.04320
C         20.89032         1.87205        -0.21544
C         20.89603         3.41304         0.11284
C         22.16606         1.31571        -0.68113
C         22.17653         4.10755        -0.00618
C         20.88454         6.31645         0.02609
C         20.92344         7.73842        -0.03140
C         22.14309         5.57047         0.24594
C         22.17264         8.43823         0.01902
C         20.91032        10.62221        -0.23746
C         20.92709        12.08799        -0.05267
C         22.18154         9.88163        -0.28138
C         22.22925        12.83473        -0.01795
C         20.97665        14.97345        -0.52131
C         20.97506        16.50408        -0.43214
C         22.25550        14.30052        -0.25889
C         22.23600        17.18258        -0.11847
C         20.96523        19.27443         0.14170
C         22.21673        18.59201         0.12110
C         23.34319         2.01096        -0.59057
C         23.34682         3.40906        -0.19344
C         24.62048         1.42683        -1.18274
C         24.63951         4.14542        -0.28521
C         23.43190         6.33076         0.23965
C         23.42540         7.79394         0.07795
C         24.68447         5.62112        -0.13189
C         24.68708         8.45670         0.09314
C         23.48857        10.60275        -0.27955
C         23.48531        12.09727        -0.34304
C         24.70992         9.94624         0.33407
C         24.77130        12.82807        -0.24549
C         23.43221        15.00591        -0.18536
C         23.45020        16.46409        -0.12561
C         24.70071        14.27682         0.09584
C         24.67194        17.17186         0.02153
C         23.45235        19.26770         0.29481
C         24.68396        18.58074         0.22064
C         25.90199         1.94922        -0.52972
C         25.89464         3.37419        -0.04381
C         27.19888         1.38893        -0.96922
C         27.17910         4.14403         0.11707
C         25.95232         6.34303         0.11447
C         25.91048         7.75498         0.18168
C         27.17274         5.63174         0.08667
C         27.16969         8.49855         0.57511
C         26.00955        10.67131         0.01514
C         26.04030        12.08414        -0.04510
C         27.21459         9.95678         0.15666
C         27.25021        12.79597         0.10326
C         25.99477        15.00467         0.10484
C         25.95722        16.46830        -0.15739
C         27.28336        14.25707         0.08521
C         27.24849        17.21631        -0.02543
C         25.94222        19.26138         0.44874
C         27.17474        18.62624         0.41906
C         28.38313         2.05461        -0.83891
C         28.46115         3.41125        -0.23382
C         29.61295         1.53318        -1.43591
C         29.65745         4.20173        -0.52407
C         28.39020         6.34879        -0.01813
C         28.43569         7.75548         0.17727
C         29.59662         5.64851        -0.49487
C         29.65532         8.45179         0.17454
C         28.43303        10.64782         0.26769
C         28.46554        12.06580         0.28251
C         29.64848         9.86816         0.72092
C         29.69345        12.76114         0.56097
C         28.44877        14.94509         0.29388
C         28.51606        16.42543         0.16484
C         29.62033        14.22330         0.91750
C         29.73169        17.15189         0.64587
C         28.37905        19.25493         0.88081
C         29.58792        18.58359         1.02703
C         30.79668         2.17901        -1.36972
C         30.95191         3.44599        -0.55501
C         32.14932         4.29640        -0.89038
C         30.89679         6.43361        -0.65970
C         30.90121         7.81742        -0.12007
C         32.14617         5.63616        -0.81963
C         32.09343         8.53141         0.01974
C         30.93822        10.62572         0.52478
C         30.91329        12.06929         0.67520
C         32.10489         9.91909         0.29090
C         32.11514        12.82089         0.88226
C         30.93698        14.97035         0.92214
C         30.92197        16.38306         1.10780
C         32.11911        14.20339         0.99364
C         32.00213        17.12021         1.60645
C         30.74135        19.22334         1.56632
C         31.90594        18.51353         1.81648
O          7.22448         4.99457         2.28860
O         28.00999         3.57186         1.17539
O         24.13823        12.59094        -1.55642
O         11.66279        14.67750        -1.72072
O          9.22896        10.21147        -1.12885
O         17.06497        17.74673         1.23962
O          2.60062        15.02415         1.22067
O         26.67114        16.93053        -1.34828
O         24.68134         4.99793        -1.49322
O         11.03465        11.63605         1.60379
O         14.30424         3.77133         1.79007
O         30.03337         6.26989        -1.81833
O          4.16937         8.03583        -1.14070
O         11.91722         6.09483         2.17338
O         29.53190        16.88690        -0.80176
O         20.89407         2.40096         1.15048
O         25.74490         2.26812         0.88727
O         15.15880        10.21217        -1.81017
O         21.61832        12.45130         1.24768
O          7.14341        17.32319         1.13416
O          9.13549        16.72178        -1.85040
O         13.60022        15.51574         1.25853
O         20.99377        15.80242        -1.72617
O         11.33992        16.83425         1.20195
O         27.05830         8.60533         2.01164
O         16.48438         7.94969        -1.89063
O         22.84241         5.90190         1.51211
O          4.82478        13.73737         1.59455
O         25.29642        14.66490         1.37275
O         23.00316        10.07093        -1.53944
O         24.66042         1.76226        -2.58242
H         24.57355         2.73556        -2.67100
O         24.62243        10.07865         1.78408
H         25.42250         9.59196         2.14330
O         13.05867         6.37646        -1.24894
H         13.74908         6.84810        -1.76437
O          6.38270        16.18506        -2.21995
H          5.61006        15.81076        -2.69119
O         31.18813         3.01549         0.83584
H         30.35100         2.63528         1.18194
O         14.01478         7.84629         2.00351
H         13.34782         7.33503         2.52351
O         29.25767        14.20558         2.36876
H         29.75330        13.46992         2.79051
O         16.09531        16.66155        -2.03698
H         15.34941        16.19564        -2.47106
O         29.48047         9.74283         2.17352
H         28.57930         9.30084         2.32118
O          3.69595         1.90977         2.62402
H          4.51062         2.38574         2.89710
H          0.23957         1.47989         0.39103
H          0.17084         3.93965         0.59881
H          2.35414         0.22501         0.69455
H          0.17377         5.89161         0.99167
H          0.16110         8.32250         0.82809
H          0.12087        10.15481         0.03045
H          0.11907        12.58965        -0.11924
H          0.17272        14.40685        -0.91493
H          0.22115        16.78970        -1.40492
H          1.41918        18.96968        -1.54680
H          4.84779         0.27791         0.45921
H          3.56411        20.21426        -1.64212
H          7.31153         0.35575         0.15145
H          6.02641        20.25621        -1.48694
H          9.74222         0.35783         0.01374
H          8.48067        20.42361        -0.85933
H         12.16927         0.32765        -0.13593
H         10.97834        20.44467        -0.42525
H         14.67685         0.29014        -0.25769
H         13.47545        20.40791        -0.44850
H         17.11858         0.26998        -0.51589
H         15.95089        20.39867        -0.50365
H         19.54882         0.26912        -0.94521
H         18.53536        20.42673        -0.07496
H         22.15414         0.32406        -1.15908
H         20.96765        20.36671         0.27524
H         24.59248         0.31051        -1.11897
H         23.44961        20.35368         0.47042
H         27.18133         0.43042        -1.51130
H         25.90035        20.32146         0.74275
H         29.53811         0.57835        -1.97921
H         28.32417        20.31072         1.18845
H         31.69119         1.73809        -1.83468
H         33.09875         3.76535        -1.05931
H         33.08676         6.18321        -0.98623
H         33.05386         8.03608        -0.17903
H         33.07116        10.44034         0.23627
H         33.07337        12.28919         0.95367
H         33.08610        14.71538         1.10284
H         32.92988        16.60877         1.89906
H         30.69329        20.29707         1.79867
H         32.77492        19.04147         2.23383
