         244
 CSIRO Nanostructure Databank - Neutral Graphene Oxide Data Set
C          1.18669         2.23294         0.50677
C          1.15893         3.60601         0.22160
C          2.38389         1.55047         0.66463
C          2.35345         4.34864         0.05988
C          1.14741         6.48324        -0.53112
C          1.15549         7.76232        -0.97269
C          2.36473         5.74202        -0.27659
C          2.41746         8.53210        -1.23408
C          1.18761        10.66994        -0.51448
C          1.18362        12.05247        -0.33505
C          2.38171         9.98233        -0.77419
C          2.38008        12.78725        -0.39736
C          1.22599        15.03948        -0.47952
C          1.27571        16.42730        -0.36476
C          2.38542        14.25898        -0.29828
C          2.47279        17.08793        -0.02626
C          2.53918        18.52960         0.09132
C          3.63411         2.23438         0.54742
C          3.60654         3.65201         0.19043
C          4.83206         1.60337         0.85516
C          4.80989         4.32349        -0.02852
C          3.60575         6.43250        -0.39378
C          3.64630         7.82591        -0.70688
C          4.83826         5.72345        -0.25360
C          4.86357         8.50693        -0.74067
C          3.60068        10.69125        -0.77974
C          3.59541        12.07860        -0.56915
C          4.88464         9.96879        -1.16608
C          4.88134        12.86174        -0.68388
C          3.59267        14.92126         0.01589
C          3.64638        16.31904         0.18864
C          4.81565        14.10584         0.17313
C          4.88647        16.97107         0.58778
C          3.69297        19.16384         0.42678
C          4.91151        18.43087         0.72848
C          6.11866         2.39052         0.88835
C          6.05867         3.49259        -0.17589
C          7.37300         1.56148         0.76265
C          7.32073         4.30658        -0.17488
C          6.08259         6.41679        -0.39594
C          6.09194         7.80051        -0.61746
C          7.32672         5.66208        -0.30971
C          7.34838         8.51966        -1.06942
C          6.14045        10.68353        -0.68977
C          6.13398        12.06102        -0.42515
C          7.35843         9.97767        -0.67639
C          7.35236        12.75054        -0.18526
C          6.08338        14.78201         0.59732
C          6.03105        16.24391         0.82043
C          7.37542        14.14476         0.24498
C          7.26179        16.88448         1.33324
C          6.04407        19.08798         1.11907
C          7.28483        18.39008         1.61723
C          8.56503         2.11635         0.32569
C          8.55614         3.48982        -0.24529
C          9.81606         1.43974         0.40890
C          9.87322         4.21131        -0.39068
C          8.60553         6.43883        -0.12255
C          8.63500         7.82890        -0.69584
C          9.86953         5.67247        -0.38391
C          9.83817         8.51046        -0.70292
C          8.58517        10.67080        -0.56475
C          8.57405        12.06363        -0.34547
C          9.85876         9.96834        -0.71144
C          9.83405        12.86005        -0.55754
C          8.56594        14.81618         0.45362
C          8.55440        16.13939         1.14467
C          9.83511        14.20136         0.12703
C          9.83282        16.92708         1.22375
C          8.56075        19.05970         1.14557
C          9.78099        18.40708         1.08504
C         11.06733         2.08963         0.22297
C         11.11590         3.49479        -0.08024
C         12.29540         1.40762         0.42096
C         12.32556         4.19791        -0.12079
C         11.08462         6.36215        -0.38097
C         11.10011         7.79652        -0.52039
C         12.32282         5.63216        -0.32824
C         12.32994         8.47406        -0.54722
C         11.06248        10.65607        -0.61558
C         11.09758        12.06472        -0.33886
C         12.35177         9.94286        -0.94502
C         12.29102        12.70933        -0.04461
C         11.03981        14.83911         0.31019
C         11.10593        16.22731         0.82212
C         12.31187        14.15657         0.13491
C         12.26802        17.03765         0.47931
C         11.00764        19.10146         0.88872
C         12.23974        18.43564         0.64135
C         13.53588         2.07735         0.33763
C         13.56040         3.49031         0.07690
C         14.77891         1.39403         0.47846
C         14.79766         4.16171        -0.05165
C         13.53344         6.34478        -0.36905
C         13.54559         7.75671        -0.43139
C         14.79431         5.57393        -0.46040
C         14.81572         8.50381        -0.08056
C         13.59536        10.66508        -0.46547
C         13.54461        11.96693        -0.05327
C         14.89079         9.91345        -0.66429
C         14.75804        12.67623         0.42138
C         13.49315        14.87406         0.18069
C         13.48865        16.35860        -0.07841
C         14.76457        14.18527         0.48538
C         14.75370        17.05782         0.35671
C         13.47202        19.16835         0.47246
C         14.70486        18.51931         0.41384
C         16.00548         2.06310         0.40059
C         16.02514         3.48970         0.15545
C         17.24981         1.34708         0.47999
C         17.26627         4.20593         0.15774
C         16.11518         6.31125        -0.48265
C         16.11729         7.77306        -0.33926
C         17.32827         5.57743        -0.09008
C         17.31949         8.44702        -0.27221
C         16.13711        10.59001        -0.12236
C         16.08108        11.97980         0.35083
C         17.33000         9.90802        -0.12203
C         17.35385        12.80175         0.25311
C         16.04960        14.93128         0.33597
C         15.94476        16.37639         0.47803
C         17.24884        14.26599         0.03334
C         17.13820        17.21691         0.85362
C         15.92478        19.24672         0.22987
C         17.15578        18.58282         0.22232
C         18.47812         1.99590         0.47985
C         18.51941         3.50153         0.63754
C         19.72035         1.31200         0.50260
C         19.75467         4.11201        -0.04444
C         18.55168         6.33604        -0.02327
C         18.56417         7.71013        -0.18959
C         19.80281         5.59219         0.27116
C         19.85151         8.46559        -0.40654
C         18.60759        10.60747         0.04815
C         18.61574        12.07091        -0.01474
C         19.79717         9.91533         0.03281
C         19.79021        12.76600        -0.19059
C         18.44526        14.94095        -0.41870
C         18.45208        16.22488        -0.95276
C         19.76521        14.19949        -0.65930
C         19.70881        17.05105        -1.01543
C         18.34123        19.18390        -0.25985
C         19.54618        18.53182        -0.62951
C         20.94913         1.99362         0.47687
C         21.02822         3.37838         0.30116
C         22.26397         4.09138         0.21332
C         21.13942         6.30810         0.22862
C         21.12968         7.75465        -0.02289
C         22.33300         5.45482         0.08111
C         22.31306         8.50631        -0.16725
C         21.09197        10.63606         0.33549
C         21.06948        12.10962        -0.05208
C         22.30158         9.88367        -0.14743
C         22.20634        12.87619         0.03053
C         20.99563        14.98518        -0.27020
C         20.87776        16.49244        -0.18478
C         22.15004        14.31650        -0.00718
C         22.11923        17.27442        -0.58106
C         20.72559        19.26568        -0.73544
C         21.99851        18.60574        -0.83493
O         15.49400         5.82535        -1.73740
O          5.28023        13.95868         1.54368
O         14.59390        13.35946         1.70082
O         17.94173        16.88997         1.70970
O         20.41323         5.96133         1.51219
O          9.16987         3.59210        -1.56837
O          4.94783         9.92120        -2.60826
O         10.72390        16.42243         2.25351
O         16.86268        12.28325         1.54384
O          7.85196        16.10943         2.43885
O         19.96251         8.56200        -1.88745
H         19.09698         8.87868        -2.22601
O         19.84920        14.08752        -2.13483
H         20.10809        14.97656        -2.48070
O          8.64118         6.66422         1.35520
H          9.38198         7.28086         1.54347
O         15.09428         9.75088        -2.10372
H         15.18595        10.64101        -2.50387
O         20.12902        17.00372        -2.41302
H         19.43047        17.43850        -2.94707
O          2.58407         8.58926        -2.68450
H          3.44947         9.08270        -2.85193
O          7.25555         8.50937        -2.52943
H          6.41499         9.02748        -2.75857
O          4.98206        13.31014        -2.06931
H          4.96926        12.50143        -2.63002
O          6.17804         3.05889         2.19150
H          6.19129         2.36851         2.88668
O         12.40398         9.92267        -2.41286
H         13.26103         9.49913        -2.66096
O          7.30283        18.57359         3.06417
H          7.71507        17.75692         3.43700
O         17.41445        16.76230        -1.64946
H         16.66351        16.13167        -1.68243
O         19.57997         4.01114        -1.47932
H         19.52630         3.06077        -1.71374
O         14.74584         8.69107         1.36590
H         14.74382         7.81181         1.79794
O         13.42474        16.50801        -1.55219
H         13.34797        17.46863        -1.73942
O         21.20538        10.63546         1.80805
H         20.40919        11.08661         2.16319
O         18.64505         3.76471         2.05911
H         17.94258         3.26504         2.52416
O          9.83840        13.17095        -2.00270
H          9.83859        12.31523        -2.48443
O          5.97472         2.80426        -1.45473
H          6.13035         3.45935        -2.16693
O         20.58696        16.80639         1.19951
H         21.24196        16.35337         1.76890
H          0.23602         1.69182         0.61506
H          0.18239         4.09822         0.11780
H          2.38030         0.47801         0.90837
H          0.18112         5.97366        -0.40411
H          0.19803         8.23832        -1.23124
H          0.23103        10.12976        -0.48476
H          0.22772        12.56631        -0.16239
H          0.27077        14.55769        -0.73071
H          0.36437        17.02021        -0.53090
H          1.62559        19.11026        -0.10531
H          4.82104         0.56278         1.21793
H          3.71930        20.26041         0.51064
H          7.37266         0.53748         1.17114
H          6.02132        20.18373         1.22393
H          9.82042         0.39119         0.74364
H          8.54969        20.15876         1.07201
H         12.28054         0.33021         0.64256
H         10.99544        20.20137         0.89224
H         14.77065         0.30655         0.64610
H         13.44037        20.26749         0.49407
H         17.21920         0.24635         0.48446
H         15.86918        20.31398        -0.03785
H         19.71883         0.21335         0.56063
H         18.33898        20.28500        -0.35285
H         21.87828         1.41540         0.59465
H         23.19826         3.50806         0.21591
H         23.31084         5.93206        -0.07504
H         23.27931         7.98590        -0.26293
H         23.24742        10.42913        -0.27646
H         23.18133        12.40850         0.22517
H         23.07595        14.86751         0.21769
H         23.10984        16.79742        -0.56465
H         20.70270        20.35870        -0.60884
H         22.89366        19.21540        -1.02934
