         576
 CSIRO Nanostructure Databank - Neutral Graphene Oxide Data Set
C          5.92185        18.61883         1.85729
C          5.93650        20.11298         2.19221
C          4.87138        20.97566         1.53562
C          6.14947        23.09914         1.80626
C          4.94372        22.32806         1.52826
C          6.13917        24.47381         1.81584
C          8.53088        14.70366         0.43130
C          8.39222        16.11512         0.41646
C          7.15572        16.60170         0.92807
C          8.60385        19.05081         0.70091
C          6.72700        17.97088         0.94873
C          8.51027        20.01075         1.66659
C          7.33562        20.81798         2.06454
C          8.63713        23.12567         1.47794
C          7.43621        22.35492         1.94134
C          8.57006        24.53527         1.38885
C          7.35317        25.26637         1.76334
C          8.54320        27.46384         1.67949
C          7.36292        26.64609         1.89925
C          8.61409        28.81855         1.91048
C         11.05034        10.43008         0.28092
C         10.97980        11.86617         0.11939
C          9.79395        12.57242         0.31480
C         10.89380        14.70221        -0.24697
C          9.73545        13.99112         0.15691
C         10.67462        16.13093        -0.70872
C          9.60230        16.89998         0.06705
C         11.14721        18.90470         0.32570
C          9.76490        18.23765         0.33843
C         11.01770        20.40085         0.16001
C         10.22559        21.10026         1.01529
C         10.76413        23.28246        -0.01789
C          9.74771        22.45919         0.75663
C         10.90602        24.64994         0.52345
C          9.67584        25.31046         0.95407
C         11.00410        27.49839         0.81152
C          9.68130        26.76458         1.02247
C         11.13878        28.86103         1.39694
C          9.89765        29.58083         1.85758
C         11.13222        31.73494         1.52270
C          9.97294        31.05818         1.84137
C         11.25467        33.18318         1.68929
C         13.59464         6.17799         0.24080
C         13.50740         7.61478         0.19806
C         12.29350         8.29459         0.23411
C         13.45265        10.42120        -0.43059
C         12.21898         9.72083         0.10057
C         13.42947        11.92291        -0.25067
C         12.18374        12.59799        -0.18144
C         13.35674        14.70307        -0.66534
C         12.13111        14.01423        -0.38831
C         13.32362        16.11619        -1.07329
C         11.99611        16.87385        -0.97437
C         13.24683        19.01187        -1.00179
C         12.10623        18.31679        -0.69766
C         13.37489        20.46323        -0.58704
C         12.01201        21.12932        -0.65758
C         13.23042        23.36499        -0.74661
C         11.97097        22.61993        -0.59372
C         13.31781        24.73408        -0.45206
C         12.22388        25.37240         0.30359
C         13.44973        27.51490         0.25145
C         12.25160        26.81238         0.46784
C         13.48763        28.93084         0.50704
C         12.33862        29.61794         0.98762
C         13.51002        31.72989         0.74606
C         12.32557        31.01529         1.07752
C         13.34155        33.17996         0.34817
C         12.34452        33.90463         1.28648
C         13.48704        36.15351         1.68058
C         12.39406        35.37470         1.37343
C         13.56827        37.58578         1.30323
C         16.04978         6.24845         0.33474
C         14.80029         5.53127         0.27005
C         15.99705         7.70031         0.34566
C         14.75234         8.36297         0.20516
C         15.90411        10.50248         0.19270
C         14.72945         9.76529         0.03700
C         15.91139        11.93646        -0.18429
C         14.62182        12.65228        -0.30868
C         15.82432        14.87127        -0.37743
C         14.59872        14.06874        -0.49282
C         15.84527        16.22585        -0.57075
C         14.62707        16.86901        -1.10940
C         15.74485        19.21133        -0.89001
C         14.55352        18.36277        -1.22814
C         15.71242        20.60726        -1.41647
C         14.48568        21.24288        -1.30404
C         15.30942        23.55222        -1.88103
C         14.31505        22.69849        -1.36553
C         15.55881        24.85426        -1.42295
C         14.51593        25.47111        -0.67761
C         15.82873        27.57203        -0.42641
C         14.61176        26.84995        -0.26337
C         15.89449        28.92115        -0.05972
C         14.72039        29.62486         0.37533
C         15.99021        31.77586         0.57697
C         14.71442        31.03803         0.59626
C         15.90895        33.29849         0.67028
C         14.64837        33.89172         0.11178
C         15.84040        36.03225        -0.12766
C         14.70668        35.18731        -0.39642
C         15.67524        37.52630        -0.24947
C         14.52695        38.14964         0.54637
C         18.51019         6.29961         0.62805
C         17.26970         5.59727         0.43530
C         18.54061         7.80487         0.43842
C         17.17816         8.45526         0.53590
C         18.25585        10.64746         1.09079
C         17.10601         9.85214         0.58386
C         18.28725        12.10364         0.79337
C         17.14815        12.73446         0.04972
C         18.29445        14.99979         0.42710
C         17.02145        14.21216         0.20962
C         18.33092        16.39227        -0.05052
C         16.98520        17.08040         0.02892
C         18.31654        19.16962        -0.85049
C         17.02166        18.54453        -0.45666
C         18.31432        20.52909        -1.24150
C         17.03099        21.33579        -1.23606
C         18.28156        23.34632        -1.94537
C         17.21399        22.53005        -2.11297
C         18.11666        24.81661        -2.16965
C         16.93498        25.45388        -1.43852
C         18.27030        27.67152        -1.22221
C         17.06813        26.86281        -0.88337
C         18.32394        29.00191        -0.85267
C         17.26733        29.53473         0.10133
C         18.23467        31.85690        -0.62624
C         17.24867        31.05915         0.22310
C         18.28749        33.31064        -0.19267
C         17.15477        33.98491         0.16423
C         18.28936        36.20508         0.09994
C         17.10529        35.44253         0.13406
C         18.21097        37.65420         0.05008
C         16.95675        38.27246        -0.02444
C         20.87952         6.32279         1.37179
C         19.67808         5.62769         0.86748
C         20.82126         7.80928         1.63190
C         19.60881         8.51042         1.22131
C         20.82304        10.67040         1.06556
C         19.54698         9.97014         1.57078
C         20.77890        12.07342         0.69154
C         19.59149        12.79658         0.71775
C         20.85325        14.95463         0.17977
C         19.58169        14.26009         0.61248
C         20.77206        16.31348        -0.41024
C         19.52434        17.01961        -0.43149
C         20.73880        19.06447        -1.23518
C         19.52695        18.42705        -0.85779
C         20.75931        20.48708        -1.53805
C         19.51793        21.21963        -1.50259
C         20.70155        23.33433        -2.07788
C         19.54936        22.66133        -1.74645
C         20.67236        24.79569        -2.36866
C         19.38041        25.59289        -2.32379
C         20.76405        27.61398        -1.54258
C         19.41979        27.11180        -2.06080
C         20.79770        29.02233        -1.10122
C         19.53464        29.77005        -0.97957
C         20.73384        31.92368        -1.00371
C         19.58549        31.17378        -0.75560
C         20.72656        33.40183        -0.91236
C         19.57726        34.02378        -0.18285
C         20.88004        36.32574        -0.07864
C         19.59055        35.52203         0.06085
C         20.73427        37.83940         0.20454
C         19.40290        38.41645         0.14530
C         23.31439         6.38277         1.51980
C         22.19721         5.64457         1.38397
C         23.38122         7.87184         1.78988
C         22.07307         8.68507         1.93349
C         23.23190        10.60656         0.60240
C         22.03030         9.99416         1.13878
C         23.20158        11.93280         0.17136
C         22.01415        12.74749         0.31350
C         23.30476        14.85591        -0.21295
C         22.02400        14.09683        -0.03604
C         23.15805        16.16225        -0.96693
C         21.97713        16.91199        -0.88702
C         23.17667        18.97589        -1.55764
C         21.97308        18.32303        -1.28170
C         23.21849        20.38825        -2.07453
C         21.93707        21.14148        -1.90547
C         23.20033        23.28062        -1.80507
C         21.97654        22.57820        -2.36748
C         23.14801        24.73820        -1.64039
C         21.96379        25.51845        -2.14177
C         23.22819        27.68024        -1.91808
C         21.93331        26.95842        -1.75565
C         23.31850        29.13918        -1.73213
C         22.08924        29.80014        -1.23306
C         23.24390        32.02260        -1.69987
C         21.96401        31.26260        -1.47100
C         23.26178        33.56712        -1.76403
C         21.96820        34.20986        -1.16443
C         23.24076        36.28140        -0.99960
C         22.07248        35.63404        -0.69382
C         23.18187        38.26343         0.11305
C         21.91055        38.72410         0.46561
C         25.80986         6.56649         1.88418
C         24.48220         6.18986         2.46040
C         25.77244         7.83324         1.17921
C         24.53713         8.52026         1.07706
C         25.64048        10.39359        -0.02739
C         24.47876         9.84040         0.51748
C         25.64507        11.72381        -0.65744
C         24.35988        12.53140        -0.52337
C         25.66149        14.59151        -0.91448
C         24.47054        13.99680        -0.63007
C         25.68734        16.04172        -1.24690
C         24.40992        16.81763        -1.37908
C         25.63418        19.00493        -1.43424
C         24.43392        18.30093        -1.44713
C         25.66133        20.46241        -1.47331
C         24.44842        21.16513        -1.63331
C         25.66265        23.30961        -1.37758
C         24.41696        22.59143        -1.59246
C         25.71583        24.72477        -1.43084
C         24.45779        25.48762        -1.51143
C         25.85169        27.61830        -2.12615
C         24.49992        26.90649        -2.00276
C         25.81288        29.12504        -1.83985
C         24.52072        29.82214        -1.77831
C         25.66895        31.91177        -1.16185
C         24.52329        31.27032        -1.53442
C         25.56767        33.28106        -0.51487
C         24.57546        34.17162        -1.24083
C         25.66489        36.24479        -0.11134
C         24.58488        35.64681        -0.96323
C         25.51780        37.41507         0.70169
C         24.32791        38.20285         0.90815
C         28.24547         6.47907         1.64748
C         26.98457         5.88885         2.04973
C         28.22307         7.79509         1.02386
C         26.97664         8.38401         0.69724
C         28.16097        10.35100        -0.30025
C         26.88277         9.56546        -0.21907
C         28.15228        11.73204        -0.70194
C         26.92590        12.44086        -0.85758
C         28.12171        14.60223        -1.03397
C         26.92764        13.86956        -0.99073
C         28.19724        16.04367        -0.55839
C         26.89225        16.81377        -0.81353
C         28.16900        19.05785        -0.85123
C         26.85691        18.29970        -0.96614
C         28.17322        20.44117        -1.51910
C         26.87664        21.17476        -1.28629
C         28.13049        23.30192        -1.06705
C         26.89248        22.58940        -1.25757
C         28.12561        24.71437        -1.02803
C         26.92538        25.42541        -1.29622
C         28.31166        27.50306        -1.62306
C         26.92395        26.94654        -1.24805
C         28.30757        29.06009        -1.60145
C         26.99612        29.79487        -1.65521
C         28.08217        31.76651        -0.42404
C         27.02166        31.31954        -1.46752
C         28.07421        33.27227        -0.15452
C         26.87860        34.00124        -0.28758
C         28.12320        36.00112         0.22212
C         26.86872        35.42170        -0.07384
C         27.90711        37.75530         1.35576
C         26.55340        37.85735         1.61928
C         30.72819         6.48675         1.64261
C         29.44002         5.79851         1.77643
C         30.72615         7.94907         1.17457
C         29.42825         8.45742         0.67879
C         30.61554        10.36520        -0.35258
C         29.36737         9.69321        -0.04876
C         30.62184        11.78582        -0.58227
C         29.38318        12.43387        -0.79891
C         30.69919        14.60149        -1.18154
C         29.39076        13.86528        -1.13705
C         30.66732        16.09725        -1.29173
C         29.40744        16.78361        -1.07864
C         30.65628        18.92350        -0.68057
C         29.41126        18.25830        -1.34792
C         30.58229        20.44308        -0.72684
C         29.40923        21.16106        -1.01008
C         30.53033        23.24406        -0.38050
C         29.36919        22.56925        -0.84998
C         30.52682        24.69479        -0.26613
C         29.34150        25.44987        -0.67298
C         30.68537        27.55933        -0.65436
C         29.37803        26.82375        -0.78185
C         30.50513        29.03411        -0.22854
C         29.53271        29.80460        -1.12982
C         30.58251        31.84697        -0.01404
C         29.47718        31.32962        -0.91084
C         30.49864        33.12868         0.49404
C         29.25464        33.87508         0.36313
C         30.30347        35.89873         1.43610
C         29.25736        35.27710         0.68028
C         30.19446        37.16151         2.10722
C         29.01176        37.91939         2.23069
C         33.03552         6.18826         0.75647
C         31.95135         5.69022         1.39285
C         33.13829         7.57499         0.32693
C         32.00669         8.53121         0.61358
C         33.08415        10.30889         0.09636
C         31.80074         9.67014        -0.34167
C         33.16445        11.85348         0.20140
C         31.82493        12.58382        -0.14144
C         33.14932        14.65917        -0.72511
C         31.96008        13.95637        -0.75379
C         33.20256        16.12234        -0.80914
C         31.99748        16.86879        -1.25191
C         33.09117        19.00534        -0.34150
C         32.00700        18.40458        -1.21798
C         32.94716        20.32601         0.03049
C         31.74491        21.11406        -0.26380
C         32.79156        23.20412         0.73931
C         31.69306        22.50739        -0.04191
C         32.90258        24.66945         0.41199
C         31.69467        25.36511         0.06754
C         33.00057        27.52947         0.26895
C         31.65495        26.85149         0.29040
C         33.01782        28.97458         0.20258
C         31.86499        29.68829        -0.09232
C         33.10620        31.86205         0.45677
C         31.87219        31.15119        -0.10024
C         32.89239        33.15445         1.12727
C         31.65196        33.76138         1.11590
C         32.69095        35.71826         2.31602
C         31.41325        34.99551         1.94936
C         32.54135        37.03444         2.88319
C         31.33530        37.66051         2.86223
C         34.28990         8.12639        -0.13476
C         35.57919        10.33033        -0.26916
C         34.30058         9.58173        -0.55327
C         35.60512        11.69619        -0.32400
C         34.31659        12.42942        -0.64664
C         35.55700        14.57821        -0.21251
C         34.38398        13.93055        -0.46452
C         35.64761        16.08805        -0.22658
C         34.31291        16.80005        -0.34168
C         35.34891        18.81401         0.64125
C         34.28448        18.22982        -0.03825
C         35.28544        20.22853         1.07410
C         34.04468        21.00048         0.74828
C         35.32452        23.13125         0.76626
C         34.10347        22.47453         0.70592
C         35.34126        24.62546         1.00761
C         34.09104        25.34906         0.56950
C         35.42464        27.48559         0.66679
C         34.15583        26.79674         0.46032
C         35.42694        28.90478         0.84276
C         34.24999        29.65806         0.58664
C         35.38011        31.67010         1.46476
C         34.25404        31.03959         0.84663
C         35.24374        33.04623         1.88689
C         34.04827        33.73737         1.79416
C         33.90148        35.07795         2.31130
C         36.79219        12.45587        -0.02447
C         37.95824        14.58057         0.44980
C         36.78277        13.83631         0.06238
C         37.89140        15.90604         0.82254
C         36.50627        16.53170         0.96476
C         37.82135        18.78925         1.34822
C         36.51839        18.04532         1.11468
C         37.85038        20.24236         1.08515
C         36.57710        21.01622         1.36463
C         37.80630        23.07059         0.41283
C         36.54517        22.40918         0.76945
C         37.83992        24.56749         0.27171
C         36.58155        25.32227         0.48885
C         37.87251        27.43195         1.01422
C         36.61871        26.77829         0.74519
C         37.83074        28.81739         1.35760
C         36.63129        29.55890         1.27602
C         36.56260        30.94015         1.63122
C         39.08357        16.66318         1.06340
C         40.30918        18.79538         1.29345
C         39.09369        18.03435         1.24333
C         40.30435        20.16790         1.13826
C         39.05437        20.87342         0.91145
C         40.47425        23.10473         0.44639
C         39.08240        22.28914         0.44333
C         40.21360        24.44882         1.04034
C         39.20489        25.32395         0.34968
C         39.06793        26.69780         0.97320
C         41.50359        20.96866         1.33090
C         41.54907        22.30440         1.14522
O         18.50240        25.31306        -3.48263
O         13.72108        20.39093         0.78944
O          9.57094        22.86114        -0.68572
O         21.54584        25.18894        -3.50372
O         14.81300        17.55368        -2.41018
O         17.00884        31.39478         1.62175
O         23.98451         7.43822         3.12830
O         10.01800        27.40403        -0.28156
O         17.82908        11.64043         2.11025
O          7.40665        18.76878         0.00507
O         11.94017        24.66445         1.59156
O         28.25680        37.37796         0.03706
O         34.27142        20.45224         2.13202
O         21.67947        29.29849         0.06669
O         30.14281        14.03903        -2.43778
O         31.45132        16.44814        -2.54137
O          9.72845        20.48107         2.18157
O         22.44829        31.53338        -2.83490
O         32.75882         9.62978         1.41575
O         23.24551        37.66161        -1.14916
O         29.38460        29.49422        -2.53069
O         20.59069         6.84554         2.75769
O         12.52684        16.42678        -2.26017
O         16.20258        19.32113         0.50625
O         25.14828        16.26875        -2.57919
O         19.83577        34.53809         1.15419
O         32.84048        31.81529        -0.98271
O         10.86576        28.96079         2.82964
O         21.08122        36.81661         1.28757
O         23.75827        27.16413        -3.23369
O         25.14575        35.08399        -2.20266
O         17.36333        14.69157         1.53283
O         38.40151        22.41547        -0.81439
O         17.72817        31.79854        -1.93809
O         26.53390        17.63875         0.35114
O         16.88668        12.23285        -1.28351
O         37.02055        24.98377        -0.87461
O         11.65174        21.85757        -1.84226
O         20.91274        34.10512        -2.20235
O         31.07594        12.69827         1.08432
O         30.82272         7.61973         2.58434
O          7.60437        21.64841         3.23148
O         36.93838        18.42179         2.47095
O         16.14468        23.00601        -2.85521
O         23.60142        25.27654        -0.34182
O         17.37401        25.68686        -0.05049
O         24.69069        11.83912        -1.78229
O         20.43272        14.92712         1.60770
O         10.03921        15.95687        -2.01729
H         10.77037        15.87621        -2.67523
O         26.70692         8.98007        -1.58250
H         26.45482         9.71599        -2.18293
O         31.15371        26.98979         1.67198
H         31.70715        26.41524         2.24413
O         30.88704        34.49016         3.23950
H         31.61003        33.98627         3.67070
O         14.54685        35.75278         2.40584
H         14.58650        34.77324         2.52198
O         12.63216        33.11394        -0.92634
H         12.57104        34.03538        -1.26652
O         39.61444        25.55713        -1.03143
H         38.78613        25.71553        -1.54262
O         28.23091        20.35042        -2.96191
H         28.28201        21.26133        -3.31788
O         28.31248        19.37919         0.55880
H         27.70067        18.78438         1.05783
O         22.12713        22.56351        -3.84332
H         21.99712        23.49917        -4.14577
O         21.99204         9.09111         3.30512
H         21.65570         8.32188         3.81623
O         36.62791        21.26091         2.80561
H         35.73082        21.04254         3.15748
O         16.94213        21.92707         0.10755
H         16.55618        21.23080         0.69550
O         15.25831        37.77613        -1.66366
H         16.03010        37.57870        -2.23777
O         35.88797        15.99706         2.14974
H         36.23442        16.50824         2.91458
O         40.88618        23.18513        -0.91716
H         40.46644        23.99196        -1.30911
O         23.45043        20.24552        -3.52879
H         23.10435        21.06887        -3.96070
O         16.66445        17.10262         1.44295
H         16.17276        17.94079         1.62226
O         19.32286        27.76885        -3.35347
H         18.90830        27.12989        -3.97914
O         32.35976        23.16813         2.15623
H         32.33279        22.22291         2.42440
O         30.71424        18.51608         0.70304
H         29.90115        18.86759         1.14260
O         15.86770        33.55858         2.11800
H         16.57631        32.99974         2.51793
O         29.82377        29.13475         1.05874
H         30.25423        28.49028         1.67796
O         31.29910        27.55061        -1.95817
H         30.58892        27.70612        -2.62841
O         11.79097        18.62195         1.59438
H         12.58712        19.23569         1.60827
O         23.25048        33.90715        -3.15562
H         22.40955        33.55441        -3.52716
O         33.96783        12.22040        -2.05104
H         34.63478        12.68036        -2.60282
O         27.76493        31.09884         0.81891
H         28.47152        30.44211         1.04193
O         17.74175        29.01126         1.37810
H         17.40450        29.62131         2.07681
O         18.92255         7.98993        -0.98913
H         18.20500         7.60054        -1.53454
O         35.41155        24.76618         2.46147
H         34.63426        24.29989         2.83947
O         28.38056        15.93473         0.89325
H         27.67627        16.46817         1.32906
O         13.42336        10.21238        -1.88482
H         12.60432        10.62882        -2.22747
O         34.07947         9.54419        -1.98965
H         34.02818        10.48175        -2.30784
O         13.65267        35.70540        -1.08839
H         13.91984        36.59011        -1.44922
O         32.28172        18.89121        -2.54197
H         31.92338        18.24178        -3.18734
O         28.68723        27.09517        -2.95842
H         27.99248        27.40931        -3.58611
O         36.39693        16.48759        -1.41348
H         35.86707        16.25631        -2.20490
O          5.58637        20.13812         3.59696
H          6.05403        20.91086         3.99544
O         26.22285        27.47521        -3.51732
H         25.39102        27.57830        -4.04072
O         33.48437        12.18523         1.55233
H         32.61367        12.28781         2.01461
O         26.61716        27.34974         0.10667
H         27.19227        26.84634         0.72050
O         29.50258        18.36928        -2.78524
H         30.04352        17.61408        -3.11504
O         23.65936        15.28061         1.16436
H         22.82821        15.52803         1.62807
O         27.36849        31.91039        -2.74698
H         26.59514        31.83537        -3.34482
O         29.78565        31.98248        -2.15178
H         29.62671        31.33677        -2.87997
O         19.55839        10.03335         3.01926
H         19.10199        10.87128         3.27022
O         24.98209        33.04002         0.80439
H         25.60021        32.45656         1.29807
H          5.41367        18.00410         2.61616
H          3.92204        20.49150         1.26204
H          4.06186        22.90632         1.20820
H          5.17361        25.00185         1.76721
H          7.65637        14.10753         0.73805
H          6.48854        15.85262         1.38561
H          6.43438        27.15568         2.20143
H          7.72585        29.34770         2.29151
H         10.13315         9.89819         0.57867
H          8.87875        12.03085         0.59729
H          9.07512        31.62864         2.12595
H         10.44189        33.69375         2.22925
H         12.66122         5.59607         0.22662
H         11.36062         7.72799         0.38088
H         11.54129        35.90181         0.91383
H         12.75931        38.24333         1.66607
H         14.83251         4.43172         0.27957
H         14.44247        39.23373         0.35951
H         17.29168         4.49672         0.46538
H         16.90366        39.37083        -0.00446
H         19.68676         4.52599         0.87540
H         19.32937        39.51229         0.10580
H         22.22104         4.54926         1.49903
H         21.80464        39.36030         1.35963
H         24.48184         5.29996         3.12932
H         24.31754        38.81836         1.82117
H         27.00098         4.92147         2.57424
H         26.23492        38.34990         2.55018
H         29.44056         4.73584         2.06334
H         28.93044        38.61816         3.07707
H         33.90227         5.53714         0.56689
H         31.92825         4.62849         1.68230
H         33.41370        37.51217         3.35313
H         31.22392        38.64251         3.34529
H         35.19159         7.51493        -0.29184
H         36.49630         9.77042        -0.02766
H         36.10818        33.53328         2.36268
H         34.79252        35.59078         2.70531
H         37.71489        11.90363         0.21056
H         38.92950        14.06116         0.45233
H         38.76083        29.32495         1.65336
H         37.45551        31.43411         2.04220
H         40.04742        16.13885         0.96529
H         41.26266        18.26277         1.42698
H         40.22161        24.51049         2.14266
H         40.01115        27.24144         1.13848
H         42.39078        20.44713         1.72286
H         42.48787        22.83995         1.35224
