         404
 CSIRO Nanostructure Databank - Neutral Graphene Oxide Data Set
C          1.18359         1.96227        -0.02910
C          1.20982         3.32061         0.34499
C          2.34839         1.26759        -0.29375
C          2.40941         4.02057         0.55487
C          1.16502         6.17985         0.34138
C          1.01704         7.56299         0.28557
C          2.37531         5.50675         0.67426
C          2.06976         8.42809         0.66750
C          1.12493        10.72930         0.01323
C          1.26190        12.14543        -0.09254
C          2.03261         9.88678         0.63304
C          2.44272        12.90638        -0.11089
C          1.24116        15.10580        -0.09088
C          1.23681        16.49042        -0.12609
C          2.42824        14.35567        -0.29143
C          2.43509        17.21530        -0.32082
C          2.46769        18.64386        -0.23653
C          3.60512         1.89617        -0.06920
C          3.60941         3.22809         0.47492
C          4.82923         1.22759        -0.33467
C          4.89383         3.71668         0.83006
C          3.47396         6.37669         0.96579
C          3.25143         7.75912         1.05500
C          4.87801         5.94119         1.09088
C          5.08038         8.81530         0.35619
C          3.93563        10.96811         0.33453
C          3.73601        12.26076        -0.16641
C          4.98838        10.11091        -0.11717
C          4.86472        12.93882        -0.73400
C          3.63811        15.05574        -0.57973
C          3.64882        16.49836        -0.56073
C          4.84503        14.32847        -0.85571
C          4.85782        17.22871        -0.66209
C          3.65211        19.33295        -0.28925
C          4.89615        18.63815        -0.46137
C          6.07333         1.89456        -0.23204
C          6.07037         3.22674         0.30290
C          7.33612         1.29506        -0.46748
C          7.24413         4.10795         0.06778
C          6.00964         6.45608         0.50943
C          6.00372         7.79824        -0.12578
C          7.20372         5.61864         0.09228
C          7.31826         8.40076        -0.69757
C          6.05333        10.66790        -0.98480
C          6.05774        12.16597        -1.14027
C          7.34062         9.86830        -1.08331
C          7.41440        12.87408        -1.21714
C          6.11380        15.03645        -1.14036
C          6.11847        16.54124        -0.95634
C          7.40298        14.31762        -0.93187
C          7.36663        17.20981        -0.58619
C          6.13843        19.31457        -0.41677
C          7.36395        18.59572        -0.37495
C          8.55226         2.00529        -0.23186
C          8.54992         3.42184         0.00637
C          9.79203         1.33308        -0.27576
C          9.75077         4.15478         0.11350
C          8.52121         6.33174         0.01547
C          8.55273         7.69532        -0.32092
C          9.73970         5.60420         0.15452
C          9.77003         8.45705        -0.22637
C          8.69541        10.58042        -1.21753
C          8.64008        12.09948        -0.94433
C          9.77338         9.85775        -0.42392
C          9.77499        12.81323        -0.62996
C          8.56311        14.97495        -0.60068
C          8.54349        16.40132        -0.12369
C          9.80842        14.25609        -0.53484
C          9.85825        17.12394        -0.24983
C          8.63191        19.24852        -0.12303
C          9.82512        18.55128        -0.11528
C         11.00796         2.02726        -0.08812
C         10.99739         3.45370         0.08552
C         12.24258         1.33247        -0.10571
C         12.23233         4.16250         0.19892
C         10.97530         6.32820         0.22351
C         10.96074         7.74148         0.14296
C         12.22709         5.59094         0.30487
C         12.20726         8.49597         0.36250
C         10.98079        10.62465        -0.06809
C         11.00845        12.11321        -0.20316
C         12.26998         9.92633         0.01039
C         12.30135        12.79166        -0.43088
C         11.03623        14.95062        -0.42601
C         11.05628        16.39658        -0.32498
C         12.29118        14.23720        -0.54167
C         12.32552        17.09484        -0.31817
C         11.10739        19.31365         0.12070
C         12.36417        18.52363        -0.16359
C         13.46625         2.00969         0.04426
C         13.46585         3.44264         0.18827
C         14.70047         1.31414        -0.00054
C         14.71477         4.12227         0.26082
C         13.47491         6.26080         0.33188
C         13.50606         7.73450         0.45772
C         14.68841         5.54998         0.25493
C         14.74735         8.48199         0.17807
C         13.46343        10.61277        -0.12019
C         13.47037        12.04194        -0.42132
C         14.72830         9.88352        -0.02708
C         14.72102        12.69501        -0.85812
C         13.49572        14.95235        -0.64535
C         13.53256        16.38134        -0.48952
C         14.73064        14.22185        -0.99068
C         14.79505        17.08712        -0.47291
C         13.56188        19.20403        -0.20014
C         14.81167        18.52150        -0.34436
C         15.94346         1.94022         0.22648
C         15.95050         3.38331         0.40868
C         17.13772         1.15987         0.03369
C         17.16164         4.11833         0.59768
C         15.93945         6.29441         0.03352
C         15.96057         7.77238         0.12755
C         17.24026         5.52650         0.18445
C         17.18296         8.46552         0.12927
C         15.96105        10.56091        -0.16269
C         16.01529        11.95297        -0.67736
C         17.17525         9.87560         0.03854
C         17.31750        12.71389        -0.61672
C         16.03654        14.96403        -0.92083
C         16.01937        16.40180        -0.55550
C         17.32161        14.21122        -0.74400
C         17.25697        17.09972        -0.45285
C         16.02654        19.22132        -0.37047
C         17.26879        18.53949        -0.42290
C         18.38063         1.51505         0.59154
C         18.34284         3.56653         1.10976
C         19.69752         1.26528         0.19106
C         19.63680         4.17393         1.05476
C         18.48306         6.26786         0.45122
C         18.46715         7.71283         0.15434
C         19.64451         5.62312         0.85894
C         19.73403         8.46334         0.43262
C         18.39454        10.65802         0.38458
C         18.49462        12.09310         0.04249
C         19.64608         9.91957         0.75456
C         19.67607        12.79507         0.14605
C         18.44211        14.93802        -0.01682
C         18.49332        16.39875        -0.36514
C         19.75421        14.21351        -0.15696
C         19.71881        17.07329        -0.39842
C         18.51132        19.21666        -0.42916
C         19.73564        18.51632        -0.46041
C         20.85141         1.99241         0.68197
C         20.81193         3.39136         1.10784
C         22.09091         1.36580         0.48363
C         22.08293         4.10400         1.44251
C         20.87886         6.35703         1.03280
C         20.93101         7.72606         0.88080
C         22.08930         5.62231         1.46715
C         22.18226         8.46245         0.89253
C         20.94576        10.65098         0.80577
C         20.94161        12.13847         0.54765
C         22.17896         9.85967         0.63187
C         22.16415        12.72049        -0.04575
C         20.94958        14.88457        -0.34624
C         20.97182        16.34552        -0.41492
C         22.22077        14.15102        -0.35714
C         22.17540        17.03858        -0.48265
C         20.98865        19.18732        -0.48513
C         22.20541        18.48276        -0.48907
C         23.38513         1.88196         0.91488
C         23.41364         3.38827         1.38592
C         24.63309         1.31523         0.43593
C         24.66560         4.10117         1.12801
C         23.40254         6.36375         1.38418
C         23.40707         7.78704         0.95875
C         24.67241         5.57849         1.21492
C         24.63495         8.49342         0.75603
C         23.35917        10.52074         0.26645
C         23.18454        11.83381        -0.31351
C         24.64353         9.88494         0.40885
C         25.01593        12.78680        -0.30424
C         23.42124        14.83653        -0.41708
C         23.47256        16.31456        -0.74420
C         24.69551        14.18574        -0.00199
C         24.70230        17.06161        -0.24174
C         23.45792        19.17497        -0.45780
C         24.69676        18.52140        -0.31272
C         25.85408         1.97980         0.60647
C         25.86530         3.41242         0.88328
C         27.09164         1.32198         0.35564
C         27.12525         4.10792         0.77675
C         25.85164         6.32041         0.68821
C         25.87211         7.79060         0.79819
C         27.14472         5.57624         0.61416
C         27.09993         8.47088         0.76048
C         25.90463        10.58855         0.40752
C         25.96482        12.04656         0.33581
C         27.10545         9.90188         0.69620
C         27.08750        12.79391         1.03010
C         25.89869        14.98271         0.38666
C         25.86492        16.42075         0.08135
C         27.17170        14.23982         0.55935
C         27.15945        17.11993        -0.01950
C         25.90491        19.24005        -0.09966
C         27.15879        18.59553         0.07054
C         28.32476         1.99751         0.39929
C         28.33235         3.43393         0.59718
C         29.55024         1.32852         0.15885
C         29.59068         4.15419         0.57478
C         28.38999         6.33774         0.80887
C         28.33882         7.72710         0.87397
C         29.63349         5.60116         0.81198
C         29.56524         8.49194         1.14195
C         28.36529        10.64369         0.79194
C         28.38374        12.04698         0.82834
C         29.60023         9.94096         0.89548
C         29.61201        12.75736         0.81147
C         28.36730        14.89656         0.54220
C         28.42624        16.34039         0.19994
C         29.62037        14.18808         0.73640
C         29.64378        17.08051         0.54817
C         28.38299        19.23752         0.26099
C         29.61927        18.52644         0.51149
C         30.77656         2.02344         0.12412
C         30.77147         3.44961         0.36967
C         31.98437         1.34885        -0.20499
C         32.06269         4.15660         0.44153
C         30.84913         6.28934         0.86499
C         30.88936         7.73444         1.14206
C         32.08780         5.63890         0.50797
C         32.11398         8.50464         0.87225
C         30.83554        10.61979         0.87060
C         30.84945        12.04495         0.80250
C         32.09632         9.89057         0.83367
C         32.08373        12.76227         0.76834
C         30.83255        14.89804         0.75194
C         30.83308        16.35193         0.77085
C         32.07569        14.18376         0.78250
C         32.06198        17.03900         0.93587
C         30.79591        19.21325         0.78573
C         32.03601        18.51127         1.26137
C         33.22912         2.00536        -0.32634
C         33.31734         3.42840         0.07689
C         34.39577         1.37956        -0.76288
C         34.49920         4.21277        -0.33498
C         33.25933         6.33309         0.33925
C         33.40563         7.73591         0.88441
C         34.40099         5.71578        -0.43047
C         34.57947         8.51481         0.35721
C         33.33594        10.63173         0.67746
C         33.32955        12.04551         0.68953
C         34.56882         9.92418         0.44948
C         34.56201        12.77867         0.60373
C         33.30810        14.90750         0.77855
C         33.28549        16.33625         0.86177
C         34.54961        14.20546         0.68664
C         34.52596        17.05954         0.81766
C         33.29109        19.20022         0.82431
C         34.48169        18.52102         0.69326
C         35.61847         2.10935        -0.96969
C         35.62165         3.56737        -0.77726
C         36.74463         1.48006        -1.44204
C         36.86015         4.31354        -0.97091
C         35.72882         6.41339        -0.27180
C         35.75817         7.81717        -0.02127
C         36.89925         5.72535        -0.63807
C         36.98571         8.54268        -0.17604
C         35.79012        10.66030         0.27823
C         35.79487        12.08199         0.42138
C         37.00562         9.96131         0.00800
C         37.03089        12.81044         0.37721
C         35.78373        14.93302         0.68496
C         35.73650        16.37024         0.77649
C         37.01354        14.21585         0.56157
C         36.98454        17.16515         0.76418
C         35.69063        19.23451         0.39576
C         36.93007        18.60413         0.40148
C         37.94962         2.24440        -1.90418
C         38.01745         3.64768        -1.34517
C         39.24426         1.48961        -1.73571
C         39.28189         4.32483        -1.32589
C         38.14145         6.43267        -0.72495
C         38.17880         7.83893        -0.50079
C         39.33923         5.72424        -1.05254
C         39.41886         8.55102        -0.62404
C         38.23423        10.67989        -0.11661
C         38.26489        12.09843         0.09550
C         39.43982         9.97084        -0.43973
C         39.49413        12.78698        -0.04798
C         38.29901        14.93955         0.65548
C         38.28452        16.44209         0.63073
C         39.58242        14.22057         0.28374
C         39.40191        17.17247        -0.03919
C         38.14232        19.30548         0.19729
C         39.38618        18.65419         0.04127
C         40.42089         2.14239        -1.64242
C         40.48146         3.59190        -1.52701
C         41.71018         4.27446        -1.52816
C         40.59034         6.40679        -1.11085
C         40.61843         7.84487        -0.92122
C         41.76003         5.65430        -1.35653
C         41.82269         8.57642        -1.04314
C         40.66731        10.67578        -0.59561
C         40.69044        12.11434        -0.43152
C         41.84305         9.95015        -0.89453
C         41.86748        12.86068        -0.64207
C         40.77655        14.98031        -0.14456
C         40.70791        16.45510        -0.31305
C         41.88047        14.26763        -0.57021
C         41.90882        17.29190        -0.35843
C         40.57995        19.34544        -0.19035
C         41.81456        18.66187        -0.34193
O          5.01548         4.73714         1.77834
O         16.96631        14.71596        -2.04406
O         24.27767         6.10776         2.53095
O         23.47193         2.30232         2.32719
O         26.35911         5.90418        -0.62228
O          4.36659         8.49349         1.51941
O         18.73089        10.31041         1.80638
O         18.26703         2.33859         1.74900
O         16.91423        12.02358        -1.83773
O          6.95539         4.90769        -1.17798
O         19.36729         8.13097        -0.94957
O         37.88910        16.97209         1.92684
O         10.81669        11.52850         1.14036
O         39.19446        14.45828         1.70801
O         30.22462         8.10946         2.40182
O          6.63480        12.55091        -2.41968
O         16.67395         5.80261        -1.14523
O          6.44509        10.03165        -2.23156
O         14.58840        13.35573        -2.15319
O         24.93782        14.53749         1.43339
O         12.83404         8.21296         1.67650
O         21.03471        11.62358         1.90996
O          6.12679        15.90087        -2.31776
O          3.07104        10.53017         1.35519
O         39.69406        16.71605        -1.39458
O         27.94311        16.61902        -1.17750
O          6.35529         7.71124        -1.53174
O         24.17009        12.19251        -1.24909
O         32.95756         3.61207         1.50157
O         21.92390         4.87069         2.69778
O          8.31345        16.27137         1.34719
H          8.40563        17.17036         1.73148
O          9.07901        10.46883        -2.61740
H          8.25396        10.58912        -3.14310
O         26.84939        12.83502         2.46555
H         26.04128        13.38623         2.59655
O         37.78054         2.40459        -3.36734
H         38.59310         2.84046        -3.70250
O         33.72461         7.54121         2.31797
H         32.92180         7.18155         2.75472
O         34.02134         5.96459        -1.84811
H         34.75053         5.62232        -2.40964
O         18.05941        14.84933         1.39677
H         18.80127        15.19474         1.93713
O         11.10850        20.55006        -0.60448
H         11.08018        20.34286        -1.56092
O         23.65077        16.37762        -2.21120
H         22.81005        16.09081        -2.62763
O         31.99870        18.59952         2.75051
H         31.21780        18.08789         3.05217
H          0.20965         1.47326        -0.17104
H          0.23993         3.82081         0.45946
H          2.31479         0.23584        -0.67079
H          0.28678         5.59214         0.04771
H          0.05525         7.98353        -0.04050
H          0.20259        10.28842        -0.39539
H          0.32813        12.67740        -0.33181
H          0.30060        14.58295         0.13022
H          0.30065        17.03904         0.05199
H          1.52086        19.18315        -0.08712
H          4.80050         0.18444        -0.68160
H          3.66543        20.42691        -0.17985
H          7.39009         0.23801        -0.76620
H          6.15144        20.40708        -0.29068
H          9.81436         0.24808        -0.45449
H          8.65039        20.34043         0.00548
H         12.24145         0.24123        -0.24513
H         11.13126        19.59854         1.21227
H         14.68135         0.22939        -0.18349
H         13.56044        20.29836        -0.08883
H         17.06435         0.26800        -0.60637
H         16.01584        20.32072        -0.33206
H         19.88885         0.45319        -0.52617
H         18.52247        20.31671        -0.40736
H         22.09791         0.40311        -0.05082
H         21.00392        20.28745        -0.50046
H         24.61425         0.32806        -0.04920
H         23.43798        20.27557        -0.46492
H         27.08047         0.24390         0.13683
H         25.86537        20.33993        -0.07699
H         29.54135         0.24358        -0.02397
H         28.41741        20.33746         0.27569
H         31.93326         0.27236        -0.42964
H         30.79105        20.31382         0.80173
H         34.37669         0.30908        -1.01817
H         33.27195        20.29254         0.69104
H         36.72479         0.39441        -1.62413
H         35.63056        20.31627         0.20375
H         39.21952         0.39243        -1.81504
H         38.10580        20.40080         0.09501
H         41.36972         1.58507        -1.61455
H         42.64153         3.70913        -1.67612
H         42.73967         6.14912        -1.38831
H         42.76389         8.05935        -1.27060
H         42.80208        10.47217        -1.00574
H         42.79271        12.35761        -0.94949
H         42.79158        14.79900        -0.87941
H         42.89720        16.81163        -0.35053
H         40.57405        20.44461        -0.18424
H         42.73504        19.25977        -0.40735
