         720
 CSIRO Nanostructure Databank - Neutral Graphene Oxide Data Set
C         22.90175        27.46944        -0.69578
C         22.87347        28.76445        -0.32148
C         22.81712        31.79109         0.03956
C         22.92678        33.10094        -0.20306
C         23.13436        35.90086        -1.03877
C         23.22275        37.23570        -1.43107
C         23.18206        40.88667        -0.72283
C         23.00618        41.95038         0.09572
C         22.97195        44.62751         1.31154
C         22.98473        46.00765         1.40682
C         25.38397        24.84871        -1.79203
C         24.17882        25.50383        -1.55500
C         25.37841        27.46930        -0.74859
C         24.15220        26.81324        -1.04321
C         25.38792        28.85830        -0.32432
C         24.09535        29.63800        -0.48576
C         25.26999        31.63408         0.74553
C         24.02242        30.94907         0.29608
C         25.23027        33.21538         0.80290
C         24.29770        33.72689        -0.34969
C         25.44092        35.99028        -0.30149
C         24.25757        35.25081        -0.50002
C         25.52731        37.39479        -0.55580
C         24.40717        37.94435        -1.21466
C         25.50688        40.41976         0.05752
C         24.42731        40.16219        -0.75669
C         25.42621        41.66033         0.88552
C         24.11895        42.43408         0.93474
C         25.41779        44.55881         1.23155
C         24.17386        43.89662         1.18924
C         25.43534        45.98431         1.28706
C         24.20925        46.70842         1.33728
C         25.40137        48.80321         1.03560
C         24.23062        48.13748         1.27348
C         27.97373        23.37824        -2.18920
C         27.89550        24.73731        -1.64131
C         26.61608        25.43149        -1.41879
C         27.80328        27.34894        -0.30054
C         26.58142        26.72905        -0.83627
C         27.83398        28.79182         0.05212
C         26.56456        29.50782         0.02811
C         27.69632        31.27561         1.19390
C         26.54372        30.85246         0.60068
C         27.72255        33.45218         1.19868
C         26.58168        33.90075         0.60844
C         27.97701        35.94741        -0.03383
C         26.67042        35.20251        -0.08068
C         27.89679        37.42108         0.22994
C         26.69800        38.20029        -0.15816
C         27.94526        40.25246         0.55647
C         26.71313        39.58187         0.12649
C         27.93286        41.62970         1.20286
C         26.67606        42.43278         1.02391
C         27.92539        44.54594         1.19253
C         26.67060        43.81251         1.15423
C         27.89918        45.95491         1.25369
C         26.67804        46.69485         1.21493
C         27.83264        48.77343         0.52471
C         26.65428        48.10881         0.96552
C         27.83385        50.07079        -0.07505
C         30.47368        23.50317        -2.38366
C         29.14502        22.78060        -2.49856
C         30.37108        24.57471        -1.29710
C         29.08238        25.36662        -1.35775
C         30.30864        27.49182        -0.69699
C         29.09000        26.65304        -0.64660
C         30.28516        28.66083         0.19887
C         29.04264        29.36086         0.45603
C         30.23382        31.66767         1.29517
C         29.05470        30.87913         0.68849
C         30.22819        33.18333         1.50998
C         29.05136        33.97033         0.97373
C         30.46336        35.93744         0.50045
C         29.16548        35.24730         0.50346
C         30.50179        37.44654         0.51550
C         29.17854        38.14673         0.58053
C         30.51378        40.28171         0.67911
C         29.15931        39.60783         0.57924
C         30.43877        41.75319         0.99633
C         29.21042        42.41992         1.02099
C         30.42842        44.54472         1.17696
C         29.18202        43.83885         1.13989
C         30.44050        45.96960         1.16186
C         29.16679        46.68313         1.28180
C         30.32446        48.57791         0.03070
C         29.12446        48.15224         0.79480
C         30.22463        49.90761        -0.70611
C         28.97363        50.66143        -0.54971
C         32.90210        20.52823        -2.16400
C         31.74480        21.26985        -2.36883
C         32.87516        23.27062        -1.59599
C         31.70176        22.64493        -2.09009
C         32.86289        24.71322        -1.28363
C         31.64860        25.38212        -1.23005
C         32.86062        27.44102        -0.41519
C         31.63885        26.81474        -0.93536
C         32.79824        28.65445         0.30034
C         31.49116        29.02922         0.75692
C         32.76023        31.63223         1.32792
C         31.45732        31.07476         1.54558
C         32.77891        33.07824         1.26107
C         31.56996        33.81778         1.17928
C         32.85100        35.92886         1.14736
C         31.64292        35.20541         0.97289
C         32.82443        37.37692         1.34088
C         31.68111        38.10043         1.12409
C         32.78555        40.27689         1.83645
C         31.46352        39.52161         1.63724
C         32.89364        41.70952         1.46589
C         31.66679        42.44898         1.19967
C         32.84325        44.59244         1.87194
C         31.67542        43.85465         1.24486
C         32.96484        46.12692         1.48293
C         31.64295        46.68183         0.98628
C         32.83501        48.56243        -0.03562
C         31.63120        47.96364         0.37391
C         32.80774        49.88101        -0.72959
C         31.51790        50.59565        -1.03709
C         32.73375        52.73922        -1.23269
C         31.56152        52.07246        -1.10460
C         35.33460        18.95355        -1.67076
C         35.31042        20.37188        -1.48744
C         34.08833        21.13093        -1.67542
C         35.27418        23.21432        -0.83174
C         34.05373        22.52407        -1.39461
C         35.36494        24.68234        -1.33308
C         34.08671        25.40819        -1.03127
C         35.28485        27.42670        -0.15774
C         34.09063        26.74493        -0.55306
C         35.23699        28.77622         0.34756
C         33.97715        29.42760         0.62632
C         35.19144        31.53377         1.09087
C         33.94013        30.83095         1.04446
C         35.21730        32.96906         1.45720
C         34.00754        33.78375         1.28984
C         35.31032        35.93556         1.40696
C         34.05172        35.19489         1.31540
C         35.31091        37.31275         1.60533
C         34.02619        37.96149         2.07615
C         35.34900        40.22720         1.89052
C         34.06578        39.50374         2.07659
C         35.35891        41.61378         1.71172
C         34.11109        42.35393         1.57823
C         35.37661        44.48115         1.06643
C         34.23167        43.85379         1.84122
C         35.37602        45.83508         0.66191
C         34.15458        46.59062         0.67204
C         35.31130        48.55389        -0.33544
C         34.09306        47.89122         0.12887
C         35.27145        49.86524        -0.77927
C         34.05405        50.71766        -0.53017
C         35.17054        52.70077        -1.64423
C         34.01404        52.06404        -1.23188
C         35.21463        54.06687        -2.09478
C         37.73676        18.82076        -1.10027
C         36.46524        18.20509        -1.50692
C         37.81848        20.31179        -1.20172
C         36.54877        21.06913        -1.25076
C         37.79964        23.24461        -1.34111
C         36.54587        22.44705        -1.08310
C         37.78054        24.62677        -0.69088
C         36.58524        25.36731        -0.75924
C         37.74500        27.37690         0.03333
C         36.53029        26.71211        -0.28447
C         37.73777        28.78518         0.39813
C         36.46857        29.47024         0.57608
C         37.66123        31.62073         0.88843
C         36.42722        30.86429         0.89973
C         37.71009        32.99898         0.95899
C         36.54210        33.76108         1.38457
C         37.76763        35.92146         1.04715
C         36.54372        35.22278         1.25972
C         37.82538        37.35767         1.32147
C         36.61888        37.92523         2.06358
C         37.90043        40.21852         2.12338
C         36.60493        39.46676         2.13270
C         37.89768        41.76565         2.04801
C         36.59720        42.37260         1.52386
C         37.86792        44.34094         0.55666
C         36.58216        43.70408         1.08366
C         37.84876        45.84832         0.43314
C         36.62357        46.50354         0.28256
C         37.77714        48.56977        -0.45169
C         36.58528        47.87528        -0.19173
C         37.77292        49.87002        -1.02729
C         36.47618        50.48131        -1.34356
C         37.71924        52.67470        -1.80626
C         36.44422        51.94644        -1.75361
C         37.68309        54.07376        -2.17036
C         36.39738        54.69398        -2.37181
C         40.24399        15.88301        -1.36458
C         39.06450        16.55376        -1.34369
C         40.31526        18.69983        -1.00667
C         39.01483        17.99520        -1.02133
C         40.35770        20.20404        -1.16668
C         39.02564        20.94653        -1.12421
C         40.29183        23.11068        -0.57516
C         39.08461        22.43808        -1.13332
C         40.14496        24.40035         0.21962
C         38.95995        25.24630        -0.22045
C         40.22843        27.35753         0.06958
C         38.94652        26.63104         0.03693
C         40.24324        28.82758         0.33415
C         38.94233        29.45095         0.63274
C         40.23470        31.59975         1.06062
C         38.93274        30.87041         0.98879
C         40.27025        33.02010         0.59994
C         38.91110        33.75722         0.57289
C         40.15658        35.92450         0.31572
C         38.92581        35.20915         0.69091
C         40.19423        37.42027         0.58736
C         39.00304        38.05665         1.21632
C         40.39633        40.21271         1.46275
C         39.14807        39.44383         1.76389
C         40.34564        41.70468         1.38778
C         39.15712        42.36612         1.46679
C         40.36138        44.63138         1.25965
C         39.09429        43.84272         1.29768
C         40.32502        45.99180         0.66224
C         39.10559        46.56997         0.36454
C         40.31110        48.58463        -0.54524
C         39.06165        48.08137         0.16297
C         40.25739        49.83257        -1.43140
C         38.94587        50.58004        -1.34190
C         40.21078        52.65498        -2.08970
C         38.91712        51.95267        -1.70588
C         40.14532        54.16961        -1.81624
C         38.88164        54.78069        -2.37218
C         40.12813        56.67122        -3.30749
C         38.93808        56.04473        -3.02681
C         42.70954        15.86029        -1.02044
C         41.50009        16.54257        -1.07563
C         42.76174        18.60793        -0.45962
C         41.48486        17.98027        -0.90711
C         42.73926        20.05750        -0.13559
C         41.43879        20.81552        -0.27829
C         42.76124        23.02226        -0.28172
C         41.46339        22.28686        -0.13059
C         42.76541        24.48216        -0.02407
C         41.47916        25.15440         0.38443
C         42.77056        27.38090        -0.07060
C         41.50337        26.63691         0.33605
C         42.75615        28.80951         0.43808
C         41.55347        29.44082         0.69034
C         42.82226        31.62153         0.93931
C         41.54214        30.85946         1.06757
C         42.79274        33.03224         0.41425
C         41.50300        33.76949         0.69213
C         42.74944        35.94133         0.53312
C         41.46499        35.18030         0.28977
C         42.71589        37.40915         0.72324
C         41.51908        38.08202         0.70989
C         42.77576        40.25162         0.73624
C         41.44853        39.57422         0.56800
C         42.73848        41.69851         0.82426
C         41.59679        42.40747         1.11247
C         42.85343        44.59237         0.73899
C         41.68954        43.89094         1.42192
C         42.93988        46.11102         0.88643
C         41.56019        46.89007         0.78196
C         42.72608        48.54698        -0.96526
C         41.49758        47.98038        -0.29011
C         42.72031        50.06016        -0.82588
C         41.44629        50.74381        -1.13218
C         42.62568        52.97477        -1.10565
C         41.43406        52.06427        -1.42472
C         42.63977        54.27112        -1.91125
C         41.41644        54.84094        -2.28125
C         42.61519        56.74207        -3.22821
C         41.39498        56.08927        -2.94749
C         43.95473        16.50310        -0.76706
C         45.28819        18.57048        -0.24258
C         44.04889        17.86441        -0.52382
C         45.31906        20.08935        -0.37725
C         44.02684        20.84926         0.09305
C         45.33793        22.98107        -0.19312
C         44.04219        22.24133        -0.55213
C         45.34244        24.45012        -0.16741
C         44.08255        25.16222         0.21096
C         45.29560        27.40651         0.06269
C         44.05398        26.65418         0.29782
C         45.27644        28.80562         0.26083
C         44.03123        29.50176         0.49387
C         45.28442        31.63683         0.71718
C         44.07554        30.89579         0.66269
C         45.24539        33.07747         0.93834
C         44.03908        33.75736         0.84714
C         45.20037        35.96467         1.33896
C         43.92137        35.19642         1.09228
C         45.20952        37.41594         1.02387
C         44.00203        38.10125         0.82232
C         45.23854        40.26543         1.02651
C         43.96236        39.54747         0.77201
C         45.23251        41.74734         0.99078
C         43.99365        42.37814         0.36865
C         45.24608        44.51227        -0.07630
C         43.96647        43.88440         0.42668
C         45.27642        46.00585        -0.02440
C         44.07324        46.71019         0.06011
C         45.24254        48.64979        -0.88035
C         44.04736        48.00404        -0.49155
C         45.15888        49.95256        -1.65777
C         43.99282        50.79435        -1.05485
C         45.11643        52.95483        -1.48562
C         43.97485        52.25182        -1.30292
C         45.06486        54.46628        -1.33496
C         43.84368        54.98893        -2.08242
C         43.81925        56.21262        -2.77276
C         47.75719        18.71070        -0.25136
C         46.52754        17.96582        -0.23507
C         47.82546        20.07690        -0.11683
C         46.54548        20.79077         0.26236
C         47.80760        22.91592        -0.54812
C         46.51016        22.27805        -0.09453
C         47.79430        24.45349        -0.54861
C         46.50194        25.16867        -0.34216
C         47.81906        27.40755        -0.16971
C         46.50009        26.65815        -0.31498
C         47.74580        28.76874         0.45259
C         46.49509        29.54329         0.39596
C         47.76950        31.65382         0.87681
C         46.52372        30.93128         0.66907
C         47.75795        33.06651         1.10592
C         46.49000        33.80479         1.17710
C         47.68287        35.96137         1.57616
C         46.45522        35.18468         1.35061
C         47.66384        37.42894         1.34621
C         46.49476        38.09280         1.06433
C         47.78473        40.30733         0.98163
C         46.51524        39.54759         0.64632
C         47.79740        41.74590         0.84522
C         46.53006        42.48629         0.91237
C         47.76508        44.56346         0.08104
C         46.50591        43.93435         0.53556
C         47.71709        45.87769        -0.40485
C         46.49271        46.62615        -0.41006
C         47.74538        48.70638        -1.00156
C         46.48670        48.00845        -0.75280
C         47.73721        50.14284        -1.28521
C         46.46852        50.76192        -1.71567
C         47.67356        53.03216        -1.47234
C         46.42496        52.28092        -1.70637
C         47.56904        54.47256        -1.56761
C         46.38347        55.12629        -1.63292
C         50.30553        20.14481         0.12284
C         49.07589        20.82740        -0.01757
C         50.28444        22.97122         0.17539
C         49.07480        22.24759        -0.02078
C         50.25100        24.43487         0.23780
C         49.08303        25.19498        -0.25770
C         50.23010        27.32415         0.35843
C         49.06791        26.64853         0.04206
C         50.29662        28.82115         0.20645
C         49.02857        29.49618         0.69424
C         50.24594        31.64867         0.91587
C         49.02121        30.97316         0.81406
C         50.24918        33.06102         1.09118
C         48.99239        33.74681         1.19177
C         50.19316        35.96365         1.00831
C         48.99347        35.20206         1.45424
C         50.18624        37.47146         1.09027
C         48.95478        38.17465         1.66207
C         50.22358        40.39042         1.34829
C         48.95414        39.62878         1.21377
C         50.27699        41.78334         0.81445
C         48.99584        42.46155         0.63844
C         50.19657        44.43746        -0.32102
C         48.96524        43.81254         0.17950
C         50.21986        45.95170        -0.30505
C         48.95569        46.51145        -0.99042
C         50.22503        48.76023        -1.27146
C         48.93201        48.02054        -0.97747
C         50.16145        50.19352        -0.72313
C         48.89697        50.89258        -1.21150
C         50.16067        53.01580        -1.28408
C         48.88499        52.33550        -1.34279
C         51.50067        20.84412         0.15327
C         52.82880        22.91679        -0.00465
C         51.52692        22.25135         0.18328
C         53.10130        24.15494         0.59603
C         51.25918        25.18784         0.81586
C         52.71574        27.24066         0.67995
C         51.44291        26.60770         0.62834
C         52.78574        28.68566         0.76807
C         51.47366        29.42536         0.98251
C         52.76479        31.56803         1.43374
C         51.57890        30.93769         0.68048
C         52.76267        33.06682         1.19508
C         51.50581        33.75286         1.17545
C         52.75102        35.99005         1.19772
C         51.49778        35.21493         0.98519
C         52.77918        37.46384         1.01494
C         51.49096        38.20220         1.07800
C         52.83035        40.41106         1.38114
C         51.51627        39.64353         1.49447
C         52.76250        41.57350         0.38696
C         51.46991        42.36167         0.45073
C         52.74115        44.50728        -0.07592
C         51.50614        43.70917        -0.16448
C         52.76213        45.88797        -0.35845
C         51.50615        46.52929        -0.94476
C         52.71608        48.81316        -0.63985
C         51.45295        48.03271        -0.73276
C         52.68605        50.28180        -0.88264
C         51.46515        50.94504        -0.96584
C         51.35845        52.36760        -1.15277
C         54.90214        23.23226        -1.21939
C         53.80427        22.43849        -0.90506
C         55.05674        24.55484        -0.73602
C         54.09560        25.06287         0.19086
C         55.13430        27.20933         0.76424
C         53.97480        26.49275         0.58729
C         55.25867        28.66914         0.86137
C         53.97893        29.40935         0.86530
C         55.23380        31.54186         0.82160
C         54.04324        30.85111         1.00263
C         55.27773        33.00123         1.24759
C         53.96521        33.73835         1.06844
C         55.21754        35.88006         0.51859
C         54.02446        35.21783         1.16078
C         55.27111        37.44705         0.52894
C         53.98043        38.13131         0.97168
C         55.22677        40.26692         0.90061
C         54.03914        39.57365         1.01494
C         55.23447        41.72503         0.80745
C         54.02519        42.39504         0.60302
C         55.23157        44.61659         0.46025
C         53.93107        43.85809         0.49660
C         55.24994        45.91413        -0.27895
C         53.96252        46.62984        -0.36527
C         55.30179        48.81580        -0.86389
C         53.98475        48.03497        -0.81139
C         55.16908        50.29100        -0.78603
C         53.97755        50.94094        -0.88263
C         56.62831        25.23998        -2.60155
C         56.13794        25.38067        -1.28302
C         57.46599        27.45917        -1.03711
C         56.68578        26.42879        -0.51474
C         57.80167        28.67475        -0.17085
C         56.55228        29.40450         0.47093
C         57.59817        31.62902         0.06885
C         56.45796        30.89860         0.37948
C         57.55197        33.13307        -0.04282
C         56.48078        33.78733         0.76899
C         57.74457        35.89912         0.70012
C         56.52094        35.17633         0.84737
C         57.81451        37.29667         1.27560
C         56.48463        38.06083         1.24088
C         57.77662        40.28864         1.02102
C         56.50267        39.56069         1.16106
C         57.74800        41.71812         0.89737
C         56.50550        42.40996         0.85797
C         57.80178        44.60504         0.54616
C         56.51014        43.88121         0.74773
C         57.90143        45.90975        -0.24527
C         56.57340        46.63572        -0.50052
C         57.62746        48.77710         0.09466
C         56.54673        48.11853        -0.45645
C         57.58168        26.12213        -3.08955
C         58.99212        28.14964        -2.84082
C         58.00305        27.24946        -2.33632
C         59.32988        29.28384        -2.12469
C         58.67214        29.64715        -0.93222
C         59.94133        31.75533        -0.71067
C         58.77923        30.99685        -0.47827
C         60.02100        33.11611        -0.37371
C         58.89784        33.82954         0.02569
C         60.13172        36.01548         0.23741
C         58.94134        35.23705         0.34662
C         60.13352        37.39951         0.39959
C         58.99614        38.11674         0.80722
C         60.21058        40.29827         0.80494
C         58.98391        39.55384         0.89732
C         60.22041        41.66497         0.78541
C         59.01279        42.43732         0.77731
C         60.24354        44.64392         0.67304
C         59.06695        43.83691         0.60019
C         60.18310        46.02965         0.69737
C         58.98768        46.74859         0.38257
C         58.83025        48.11559         0.49180
O         55.90911        45.93948        -1.60490
O         40.23157        39.58857         2.75834
O         42.57622        19.08827         0.95903
O         52.22198        24.55532         1.61506
O         24.51806        39.21811        -1.79453
O         46.54151        51.51365        -2.95950
O         42.10906        43.99350         2.87794
O         40.30922        28.28443        -1.07042
O         51.96096        48.41606         0.57453
O         30.74016        36.72330        -0.72475
O         31.43644        29.73697         1.94660
O         30.04236        48.63061        -1.40472
O         48.46952        35.56594         2.76079
O         48.37071        28.79619         1.78894
O         57.17320        44.62894         1.85857
O         47.20431        27.29504        -1.47429
O         37.28862        39.84404         3.40093
O         50.65480        38.06558        -0.14938
O         29.28640        47.82046         2.19564
O         42.30716        31.29028         2.25500
O         44.27758        35.62034         2.44268
O         32.37087        44.56050         3.20344
O         42.37577        35.53367        -0.83241
O         53.49215        35.66464         2.45349
O         42.60327        24.00726        -1.38954
O         41.13920        21.45009         1.01017
O         50.80357        43.79250        -1.48779
O         55.46966        37.87711        -0.80459
O         56.33975        26.49780         0.85340
O         39.54118        31.28459         2.30709
O         28.29860        37.61633         1.63456
O         50.80693        40.06970         2.68877
O         27.52827        35.36689        -1.29004
O         27.64875        32.35395         2.08239
O         54.67125        48.27039        -2.07537
O         44.11297        25.83643         1.51373
O         38.21550        18.30479         0.20217
O         54.42642        44.64814         1.66589
O         42.52220        53.36477         0.24573
O         41.52498        25.93337         1.61614
O         45.14561        41.03927         2.26332
O         48.63209        24.93720        -1.65461
O         28.52627        26.52259         0.70589
O         24.37071        30.97196         1.71981
O         30.92922        27.64365        -1.99546
O         39.95726        36.88665        -0.76608
O         39.49294        44.59203         2.47712
O         39.52630        33.24325        -0.66065
O         44.76313        49.60678        -2.94820
O         36.34522        50.87334        -2.76535
O         56.29038        29.03739         1.85761
O         35.98183        33.28117         2.65896
O         56.29412        38.79396         2.46720
O         32.28242        49.89862        -2.08439
O         50.74856        35.52755        -0.25621
O         24.54250        41.59236         2.05803
O         43.56864        50.48270         0.30072
O         46.51137        43.57719         1.93150
O         40.13008        23.06118        -2.01680
O         33.29398        40.06031         3.19582
O         30.80066        39.42118         2.90194
H         31.49962        39.32665         3.59059
O         30.29406        23.85431        -0.02764
H         29.92630        24.46218         0.65026
O         42.85197        32.86315        -1.04127
H         42.73383        33.76359        -1.43343
O         39.02008        48.68955         1.48621
H         39.83890        48.40618         1.96880
O         27.88656        41.30816         2.64021
H         28.04371        42.13379         3.14567
O         58.42715        45.53477        -1.54767
H         57.66528        45.47566        -2.16906
O         40.86402        20.41400        -2.52520
H         40.80501        21.38246        -2.71603
O         57.04766        33.38512        -1.42367
H         56.41228        34.15106        -1.38962
O         53.13678        40.97866         2.67186
H         52.32617        40.91313         3.23066
O         48.97995        46.09177        -2.38799
H         48.20403        46.49193        -2.83547
O         24.68145        33.59085         2.06821
H         24.27619        32.78199         2.46079
O         37.93755        42.25917         3.41608
H         37.37098        41.66065         3.95772
O         52.80023        41.01848        -0.95329
H         52.55488        41.71846        -1.59450
O         42.80344        27.41935        -1.51819
H         41.99209        27.89961        -1.81678
O         49.10473        38.14513         3.09809
H         48.33861        38.59582         3.50975
O         30.13976        33.31154         2.97335
H         29.26618        32.94047         3.23737
O         51.93876        31.15651        -0.70084
H         51.32233        30.64280        -1.27420
O         34.05842        51.02775         0.90463
H         34.91894        51.43728         1.13486
O         47.79125        22.52508        -1.97053
H         48.28075        23.23373        -2.45414
O         45.37536        44.20688        -1.50045
H         44.69327        44.71438        -1.98839
O         30.71133        24.18464        -3.64108
H         30.82496        23.51006        -4.34191
O         50.43170        29.07458        -1.21889
H         49.77560        28.52462        -1.69977
O         34.73250        43.92500         3.19949
H         33.90657        44.07607         3.74876
O         35.45617        24.61169        -2.77836
H         35.69115        25.49865        -3.11993
O         41.32840        43.06687         3.66394
H         40.42679        43.49521         3.67312
O         55.08178        35.48866        -0.88299
H         55.20021        36.36680        -1.37819
O         39.78262        23.93419         1.54462
H         40.06646        24.62216         2.18914
O         24.90898        33.20466        -1.55546
H         24.36132        33.46523        -2.32420
O         46.56839        20.72580         1.70684
H         45.69963        21.06714         2.03712
O         36.73468        37.43050         3.43474
H         37.26819        38.09948         3.93209
O         33.19376        46.80698         2.74617
H         32.81908        46.17116         3.42819
O         51.52617        46.28781        -2.36235
H         51.27613        45.34161        -2.50608
O         55.42811        32.92966         2.71877
H         55.39872        33.84779         3.06831
O         52.62990        31.38370         2.86576
H         53.44592        31.74151         3.28341
O         44.82355        54.75369         0.07022
H         43.96974        54.28979         0.33328
O         46.46812        39.52873        -0.81610
H         47.29249        39.11451        -1.14876
O         24.06777        30.08610        -1.88414
H         24.11903        29.28764        -2.45109
O         44.11612        42.00696        -1.04198
H         43.32767        42.33822        -1.52027
O         41.39123        47.59428         2.04135
H         42.24424        47.50755         2.54198
O         58.60060        28.22023         0.94547
H         57.97159        27.92771         1.64674
O         49.99627        50.07488         0.71754
H         50.01109        50.97702         1.09948
O         35.11763        23.33620         0.61479
H         35.03805        22.43546         0.99385
O         37.74450        23.49959        -2.77865
H         38.66884        23.67358        -3.07139
O         40.35211        49.45346        -2.83574
H         41.17427        48.89504        -2.92661
O         58.08021        37.03184         2.69564
H         57.63395        37.76122         3.19579
O         51.12161        29.23722         2.36516
H         51.69897        29.81942         2.91609
O         43.44161        46.28767         2.24766
H         43.10853        45.54377         2.80726
O         44.03990        21.11115         1.51598
H         43.55279        20.36786         1.94798
O         40.98090        39.83572        -0.79503
H         41.41298        39.19376        -1.39819
O         40.06597        54.34251        -0.37363
H         40.93565        54.04375         0.02993
O         42.65097        48.17359        -2.37316
H         43.44060        48.62918        -2.82278
O         50.38753        48.82927        -2.70379
H         50.59164        47.91589        -3.01957
O         29.06982        31.41771        -0.69372
H         29.81269        30.99602        -1.17725
O         33.88399        37.53066         3.45800
H         34.78637        37.51568         3.85927
O         38.03451        43.81843        -0.80688
H         37.34441        44.22271        -1.37438
O         44.05858        22.08672        -1.98467
H         43.79117        22.95081        -2.37503
O         31.14477        40.16298        -0.63118
H         30.57164        40.60082        -1.29472
O         50.18217        46.29829         1.08813
H         50.44956        47.23650         1.21244
O         45.50528        20.20956        -1.80367
H         46.00205        21.03446        -2.00746
O         40.37779        52.44734        -3.51552
H         40.36339        51.47214        -3.66562
H         21.98427        26.86168        -0.68737
H         21.92135        29.23185        -0.03173
H         21.82556        31.31919         0.12218
H         22.01581        33.70489        -0.32137
H         22.20428        35.35475        -1.24406
H         22.38648        37.72254        -1.94895
H         22.38526        40.56536        -1.40743
H         22.07801        42.53642         0.04037
H         22.01188        44.09469         1.33941
H         22.04355        46.56824         1.49378
H         25.36148        23.84625        -2.23967
H         23.23012        24.99906        -1.78754
H         25.38789        49.89649         0.93222
H         23.28239        48.68759         1.35397
H         27.03870        22.82237        -2.35100
H         26.89553        50.64214        -0.10457
H         29.12254        21.77543        -2.94764
H         28.92779        51.70329        -0.89408
H         32.88414        19.45910        -2.41260
H         30.85380        20.75752        -2.75825
H         32.70496        53.83029        -1.36280
H         30.61903        52.63634        -1.09746
H         34.40267        18.43112        -1.92577
H         34.28013        54.63504        -2.19471
H         36.40747        17.11119        -1.59100
H         36.36381        55.74615        -2.68554
H         40.25877        14.80322        -1.57569
H         38.12301        16.01094        -1.50885
H         40.12481        57.63724        -3.83403
H         38.00607        56.51744        -3.36847
H         42.71335        14.77399        -1.19362
H         42.60319        57.70415        -3.76072
H         44.86197        15.88234        -0.77369
H         44.75134        56.77097        -2.93892
H         48.67695        18.12725        -0.40631
H         46.60584        16.86912        -0.27685
H         48.49595        55.05989        -1.64973
H         46.39203        56.22285        -1.72410
H         50.32654        19.04777         0.16211
H         50.17763        54.10807        -1.40284
H         52.45054        20.29201         0.18319
H         52.27936        52.96713        -1.19589
H         55.65535        22.83847        -1.91585
H         53.68105        21.45946        -1.38858
H         56.08997        50.88878        -0.72080
H         53.99656        52.04044        -0.89652
H         56.25244        24.43268        -3.24502
H         57.59227        49.86988         0.20665
H         57.99149        25.98033        -4.09936
H         59.45640        27.94952        -3.81613
H         60.03540        29.99955        -2.57121
H         60.84441        31.25069        -1.07994
H         60.99850        33.61248        -0.44932
H         61.06849        35.53158        -0.07059
H         61.06405        37.93529         0.16448
H         61.16875        39.76308         0.78063
H         61.18547        42.18645         0.72992
H         61.21615        44.16405         0.85393
H         61.08824        46.60013         0.95445
H         59.65180        48.72757         0.89174
