         404
 CSIRO Nanostructure Databank - Neutral Graphene Oxide Data Set
C          1.21296         3.96927        -2.48841
C          0.05316         4.69484        -2.66303
C          1.25403         6.81231        -2.39855
C          0.06958         6.10499        -2.61552
C          1.26197         8.27273        -2.24216
C          0.06724         9.01825        -2.17438
C          1.28760        11.04794        -1.57993
C          0.08301        10.37197        -1.87136
C          1.27991        12.43207        -1.07389
C          0.05655        13.12024        -0.86607
C          1.24317        15.13879        -0.19942
C          0.04237        14.44657        -0.48024
C          1.24949        16.53885         0.16201
C          0.07655        17.34864        -0.02608
C          1.20767        19.35402         0.77917
C          0.08066        18.70283         0.19787
C          1.24653        20.73653         1.06108
C          0.06877        21.54363         0.94078
C          1.31467        23.58143         1.46065
C          0.09122        22.89053         1.16815
C          1.32771        25.00188         1.69226
C          0.12832        25.80285         1.55780
C          1.28075        27.80933         2.38749
C          0.10924        27.13626         1.80787
C          1.34091        29.29462         2.40655
C          0.20416        29.99038         2.80290
C          1.39381        32.05487         2.48241
C          0.25363        31.38438         2.91045
C          1.25951        34.11308         1.50067
C          0.03923        34.75338         1.26610
C          1.00798        35.83654        -0.66502
C         -0.11126        35.55647         0.13513
C          0.92117        36.77107        -1.76141
C          3.65801         3.92186        -2.15401
C          2.45497         4.64111        -2.28852
C          3.72443         6.74279        -2.11586
C          2.47633         6.07584        -2.25136
C          3.75188         8.21541        -2.24059
C          2.48311         8.96744        -2.06806
C          3.79022        10.96687        -1.24164
C          2.50082        10.33884        -1.73657
C          3.78843        12.51648        -1.23686
C          2.47732        13.09413        -0.75955
C          3.70416        15.07926         0.11426
C          2.47610        14.43353        -0.27893
C          3.67668        16.41026         0.63911
C          2.42342        17.12340         0.65422
C          3.60161        19.18551         1.70236
C          2.33564        18.50117         1.17925
C          3.65411        20.64880         1.64734
C          2.48486        21.38752         1.43845
C          3.76394        23.51642         1.72183
C          2.51116        22.83364         1.55685
C          3.77437        24.93262         1.86726
C          2.55297        25.64370         1.95697
C          3.87719        27.83727         2.49596
C          2.57160        27.04670         2.41730
C          3.78135        29.25252         1.91681
C          2.54673        29.97723         2.05694
C          3.66908        32.09609         1.34202
C          2.53296        31.40407         1.93443
C          3.59136        33.41583         0.75368
C          2.37126        34.21188         0.63407
C          3.44610        35.73711        -0.98769
C          2.26455        35.22480        -0.37023
C          3.35101        36.77451        -1.99644
C          2.03413        37.19124        -2.42267
C          6.10102         3.84691        -1.87830
C          4.89669         4.58186        -2.00652
C          6.20383         6.69638        -1.86431
C          4.92742         6.02379        -2.00537
C          6.26596         8.12326        -1.80774
C          5.07202         8.92453        -2.10806
C          6.25675        10.93904        -1.05764
C          5.09439        10.44203        -1.89457
C          6.15095        12.22477        -0.41134
C          4.98722        13.00528        -0.44009
C          6.11048        14.97352         0.57458
C          4.93600        14.33661         0.11163
C          6.12461        16.35312         0.94685
C          4.88358        17.04338         1.06164
C          6.16545        19.05884         2.08109
C          4.86834        18.37241         1.73368
C          6.18337        20.56851         2.25282
C          4.91547        21.34034         1.99500
C          6.23333        23.48019         1.73701
C          4.99020        22.79847         1.77614
C          6.21813        24.89862         1.66621
C          5.02559        25.64531         1.87506
C          6.27611        27.78659         1.81585
C          5.05652        27.06132         1.96432
C          6.23461        29.23194         1.60155
C          4.94623        29.93765         1.57905
C          6.05594        31.97777         0.70432
C          4.88393        31.34445         1.20718
C          6.01432        33.29013         0.19610
C          4.74715        33.95669         0.11584
C          5.90984        35.90256        -0.96443
C          4.68182        35.18918        -0.61249
C          5.79877        37.06723        -1.99682
C          4.48823        37.30824        -2.57655
C          8.55295         3.74800        -1.58701
C          7.34735         4.49559        -1.73393
C          8.71263         6.61863        -1.73304
C          7.38025         5.92563        -1.71791
C          8.62181         8.02677        -1.21922
C          7.47021         8.78268        -1.39953
C          8.64746        10.82736        -0.53611
C          7.43583        10.19993        -1.00924
C          8.60940        12.03580         0.11990
C          7.31567        12.68457         0.36568
C          8.59715        14.89900         0.89637
C          7.32188        14.19089         0.81886
C          8.61205        16.29548         1.04196
C          7.38079        16.98776         1.22670
C          8.78807        19.05996         1.82952
C          7.45447        18.32774         1.82556
C          8.80792        20.55364         1.99689
C          7.50098        21.31516         2.17117
C          8.72721        23.40662         1.72007
C          7.50142        22.75876         1.82126
C          8.75914        24.86130         1.45139
C          7.45911        25.63312         1.44109
C          8.75903        27.77867         1.66319
C          7.47695        27.08241         1.65095
C          8.72218        29.28412         1.40188
C          7.39106        29.88058         1.20949
C          8.60125        31.89725         0.25203
C          7.30967        31.20307         0.57979
C          8.52735        33.37374         0.09630
C          7.22001        33.95796        -0.25563
C          8.40233        35.85701        -1.34211
C          7.20588        35.22982        -0.81695
C          8.26359        36.96809        -2.28659
C          7.03250        37.44343        -2.68678
C         10.96336         3.60789        -1.03780
C          9.79714         4.36382        -1.29263
C         11.02814         6.40165        -0.74214
C          9.85917         5.79928        -1.17912
C         11.04841         7.84126        -0.41679
C          9.81739         8.64901        -0.62980
C         11.16091        10.69785        -0.13535
C          9.95453        10.13504        -0.83711
C         11.14440        12.02515         0.29891
C          9.84820        12.66046         0.61616
C         11.11299        14.88326         0.73689
C          9.85336        14.14806         0.95411
C         11.08336        16.27393         0.71915
C          9.88602        17.01158         1.02599
C         11.18939        19.13727         1.01740
C          9.96040        18.39554         1.21954
C         11.20361        20.58870         1.21297
C         10.01803        21.28497         1.56657
C         11.23571        23.40032         1.54612
C         10.00064        22.69886         1.65338
C         11.30295        24.86542         1.74969
C         10.00816        25.62263         1.74534
C         11.21098        27.73916         1.17843
C         10.02741        27.06543         1.44180
C         11.18364        29.16338         0.85234
C          9.96137        29.89229         0.86769
C         11.10832        31.90411         0.08533
C          9.92161        31.23936         0.45673
C         11.09683        33.35536        -0.21678
C          9.79525        34.10937        -0.26357
C         10.83915        35.79010        -1.81987
C          9.66491        35.30036        -1.12042
C         10.70298        37.00286        -2.62733
C          9.45419        37.53344        -2.86180
C         13.38582         3.48887        -0.50690
C         12.19456         4.22758        -0.69945
C         13.44893         6.31687        -0.21581
C         12.23116         5.65552        -0.53193
C         13.50342         7.76139        -0.08717
C         12.34373         8.52385        -0.24654
C         13.57244        10.58340         0.32378
C         12.35868         9.93851        -0.05363
C         13.57855        11.98708         0.56624
C         12.35112        12.70583         0.59248
C         13.57232        14.82846         0.72342
C         12.35249        14.15289         0.68440
C         13.64534        16.24948         0.42743
C         12.30498        17.02183         0.40653
C         13.62256        19.15231         0.33357
C         12.34292        18.46851         0.61775
C         13.66714        20.64661         0.66166
C         12.41791        21.30877         1.10065
C         13.72162        23.43003         1.51237
C         12.43502        22.70120         1.34373
C         13.74009        24.89414         1.27066
C         12.52197        25.61107         1.36839
C         13.67016        27.68339         0.73955
C         12.46917        27.00026         1.10718
C         13.61499        29.06407         0.36090
C         12.36953        29.80374         0.39065
C         13.47598        31.79654        -0.64768
C         12.32679        31.18115        -0.00554
C         13.45455        33.08164        -1.18082
C         12.28099        33.94785        -0.93080
C         13.18751        35.60166        -2.65106
C         12.06260        35.15663        -1.74893
C         13.13781        37.09249        -2.90845
C         11.89760        37.68203        -3.04825
C         15.80445         3.38985        -0.01553
C         14.60225         4.12907        -0.18982
C         15.87619         6.21872         0.23614
C         14.64088         5.56311        -0.05217
C         15.92695         7.64975         0.37677
C         14.74326         8.41444         0.23107
C         16.00492        10.49117         0.73849
C         14.77853         9.82996         0.43449
C         16.01941        11.92670         0.89975
C         14.81256        12.64308         0.85388
C         16.13783        14.84460         0.97814
C         14.80302        14.09683         1.05616
C         16.14096        16.27107         0.56929
C         14.92378        16.99531         0.53224
C         16.14964        19.08903         0.29248
C         14.91517        18.40008         0.36498
C         16.16673        20.63639         0.21145
C         14.96532        21.24942         0.91345
C         16.26317        23.39970         1.17618
C         15.03064        22.63300         1.39173
C         16.18882        24.79932         0.79786
C         14.93172        25.56956         0.92957
C         16.13940        27.69976         0.41736
C         14.91360        26.97106         0.68133
C         16.06060        29.07028         0.00833
C         14.79642        29.69362        -0.10043
C         15.96798        31.67656        -1.27690
C         14.67804        30.97048        -0.82049
C         15.87809        33.10257        -1.61669
C         14.64296        33.71599        -1.72987
C         15.66697        35.85897        -2.41937
C         14.54229        35.09013        -2.21953
C         15.57329        37.28983        -2.67950
C         14.33712        37.85100        -2.98720
C         18.23480         3.28051         0.43577
C         17.01567         4.02671         0.26980
C         18.30422         6.11343         0.66182
C         17.06158         5.45846         0.39399
C         18.36219         7.53829         0.77629
C         17.16221         8.30677         0.65516
C         18.46470        10.37169         1.03562
C         17.20585         9.72563         0.81761
C         18.49850        11.83644         1.18766
C         17.27349        12.63364         0.99953
C         18.58866        14.68971         0.51272
C         17.35534        14.02511         0.87089
C         18.56114        16.06021         0.07998
C         17.36165        16.90866         0.24740
C         18.59881        19.11761         0.21401
C         17.35398        18.34157         0.16948
C         18.51172        20.38166         0.91417
C         17.43971        21.21552         0.80569
C         18.87348        23.45869         1.13194
C         17.53528        22.64702         1.18337
C         18.77860        24.97626         1.08478
C         17.49248        25.62005         0.66955
C         18.61455        27.85103         0.43417
C         17.40450        27.08188         0.56195
C         18.54973        29.22216         0.06259
C         17.27321        29.82178        -0.27358
C         18.52662        31.82846        -1.17755
C         17.23714        31.09918        -0.82482
C         18.36062        33.32877        -1.30900
C         17.14594        33.76455        -2.10877
C         18.13522        36.19857        -1.86141
C         17.01685        35.27289        -2.26778
C         17.85669        37.65333        -1.81661
C         16.69024        38.13863        -2.37388
C         19.42007         3.91260         0.69128
C         20.71607         6.00670         1.04976
C         19.49039         5.34264         0.80286
C         20.77669         7.38726         1.12570
C         19.61306         8.18744         0.98225
C         20.91915        10.32800         0.88256
C         19.66009         9.63367         1.03104
C         21.00370        11.67422         0.71720
C         19.85029        12.55003         0.96536
C         20.92108        14.46487        -0.21131
C         19.79423        13.92961         0.42990
C         20.85899        15.72962        -0.78021
C         19.69888        16.49818        -0.63153
C         21.01017        19.51561        -0.56966
C         19.76916        18.79686        -0.44928
C         21.32033        20.77347        -0.11060
C         20.41619        21.53025         0.71055
C         21.17440        23.75687         0.08535
C         20.14699        22.88787         0.62512
C         21.20187        25.08808         0.32114
C         20.02073        25.79385         0.85837
C         21.05629        28.02824         0.52580
C         19.89516        27.24228         0.56414
C         20.98189        29.39933         0.32378
C         19.74104        30.00646         0.03055
C         20.65772        32.32135         0.05156
C         19.66489        31.40377        -0.29909
C         20.53277        33.67157        -0.25110
C         19.37078        34.19875        -0.90760
C         20.12668        36.55198        -0.49500
C         19.26659        35.65450        -1.08311
C         19.95416        37.96857        -0.62597
C         18.86095        38.50672        -1.25209
O          8.32357        18.35719         3.01680
O         18.00044        35.71706        -3.26408
O          9.22331        34.18355         1.09150
O         15.16888        30.84649        -2.19501
O         10.11778         8.17452         0.71995
O         14.40718        22.95797         2.71640
O          5.41218        18.35142         3.10333
O          8.35989        21.00324         3.31106
O          8.88476        28.75948         2.75739
O         19.69979        17.70501        -1.33906
O          1.40410        33.43411         2.71548
O         15.45393        14.61413         2.26423
O         10.66105        25.28840         3.00938
O          5.88846        37.29876        -0.54712
O          4.51454         8.62503        -3.45550
O         19.65667        20.77291         1.61595
O          9.85349        13.12036         2.00611
O          8.17146        25.23389         0.16562
O         12.95310        16.59066        -0.83400
O          2.61242        18.63064         2.62230
O         19.29781        12.35313         2.29961
O          1.76295        27.19899         3.64537
O          7.84842        31.21698        -0.81579
O         18.34873        22.93799         2.38182
O         13.53599        20.13081        -0.76040
O          7.09017        13.07443         1.74082
O         19.50417        25.52695         2.22173
O          5.38490        20.99921         3.38230
O         16.90913        24.97945        -0.51058
O         12.09360        34.13665         0.52826
O          4.17908        28.04306         3.90671
H          3.32741        27.92532         4.39357
O          5.30530        11.00836        -3.21394
H          4.90687        10.36687        -3.85428
O         16.10821        20.99848        -1.19885
H         15.22143        20.70437        -1.52159
O         12.93517        34.94825        -3.94781
H         13.68459        35.16960        -4.54059
O          3.89139        10.53071         0.14261
H          3.12363        10.88900         0.63623
O          3.88792        13.06806        -2.57529
H          4.59347        12.56857        -3.05937
O         18.88179        31.31589        -2.51758
H         18.24448        31.74058        -3.15012
O          9.06343         6.76647        -3.17710
H          8.32887         7.25917        -3.60345
O         10.20459        10.29821        -2.27113
H         10.29524        11.25531        -2.46091
O         17.32334        33.24626        -3.47573
H         17.88297        33.91393        -3.94025
H          1.19624         2.87047        -2.51640
H         -0.90112         4.17679        -2.83203
H         -0.88032         6.63924        -2.75080
H         -0.90258         8.52819        -2.33201
H         -0.87776        10.89938        -1.81324
H         -0.90260        12.62116        -1.05431
H         -0.92546        14.95358        -0.37243
H         -0.82641        16.89119        -0.45080
H         -0.81400        19.28429        -0.06236
H         -0.89071        21.06371         0.70719
H         -0.85164        23.44881         1.10929
H         -0.78299        25.33338         1.16389
H         -0.78670        27.73126         1.57884
H         -0.70218        29.44338         3.09522
H         -0.58673        31.95187         3.32858
H         -0.78506        34.62151         1.97860
H         -1.07512        36.03761        -0.08224
H         -0.07114        37.15476        -2.04045
H          3.63421         2.82227        -2.18023
H          1.95602        37.91968        -3.24262
H          6.06025         2.74755        -1.88591
H          4.40817        37.94438        -3.47053
H          8.49987         2.64985        -1.63479
H          6.97514        38.17582        -3.50644
H         10.92129         2.51117        -1.11930
H          9.35327        38.43212        -3.48843
H         13.36786         2.39478        -0.62248
H         11.81885        38.72927        -3.37835
H         15.77801         2.29441        -0.11602
H         14.26243        38.93768        -3.14588
H         18.19657         2.18482         0.34851
H         16.53954        39.22685        -2.44202
H         20.34508         3.32980         0.81168
H         21.63221         5.41134         1.17453
H         21.74752         7.86233         1.32094
H         21.83108         9.73055         0.74610
H         21.97091        12.11407         0.43722
H         21.84652        13.88255        -0.30008
H         21.70690        16.13817        -1.34396
H         21.73728        19.03753        -1.24347
H         22.23703        21.24720        -0.49135
H         22.04901        23.28188        -0.38161
H         22.05202        25.68102        -0.04249
H         22.03790        27.56396         0.68990
H         21.90391        29.99542         0.31513
H         21.53871        31.98767         0.61852
H         21.34394        34.34897         0.04300
H         20.97384        36.20506         0.11149
H         20.70545        38.62800        -0.17016
H         18.72111        39.59623        -1.29852
