         404
 CSIRO Nanostructure Databank - Neutral Graphene Oxide Data Set
C          1.09361         3.99694         2.15661
C         -0.08882         4.71104         2.11660
C          1.09997         6.77781         1.57235
C         -0.09120         6.08920         1.82816
C          1.12280         8.20677         1.25534
C         -0.01514         9.01158         1.37369
C          1.14624        11.03414         0.63246
C          0.03363        10.41301         1.13285
C          1.07994        12.53512         0.37117
C          0.01236        12.88079        -0.63793
C          1.24651        14.88633        -1.35550
C          0.06087        14.03538        -1.32694
C          1.19706        16.20527        -1.82874
C         -0.03141        16.92215        -1.90837
C          1.17575        19.05697        -1.84165
C         -0.04803        18.29601        -1.90687
C          1.11765        20.50025        -1.45307
C         -0.06566        21.33366        -1.69143
C          1.16193        23.40480        -1.13745
C         -0.04108        22.67753        -1.46862
C          1.13711        24.81823        -0.84099
C         -0.07993        25.53029        -0.71877
C          1.09934        27.58473        -0.12522
C         -0.09429        26.87024        -0.37596
C          1.06194        28.96566         0.32001
C         -0.11048        29.69866         0.35949
C          1.00526        31.79956         0.94860
C         -0.13362        31.08759         0.65747
C          0.99153        33.26480         1.16423
C         -0.20503        34.08080         0.89254
C          1.12046        36.14963         0.86788
C         -0.13771        35.43579         0.84934
C          1.15593        37.56579         0.76377
C          3.55307         3.93680         1.95466
C          2.33430         4.64851         1.90546
C          3.56687         6.71421         1.35522
C          2.33340         6.05209         1.60276
C          3.57155         8.11259         0.98840
C          2.35862         8.82113         0.88275
C          3.66922        10.92637         0.42219
C          2.35102        10.20531         0.27271
C          3.73442        12.37365         0.16608
C          2.42401        13.18154         0.01125
C          3.72777        15.02553        -1.12056
C          2.47211        14.36318        -0.84740
C          3.73177        16.30077        -1.70627
C          2.45544        16.92699        -2.23844
C          3.64319        19.19940        -2.14418
C          2.39134        18.42014        -1.95407
C          3.68602        20.60889        -1.68357
C          2.42197        21.25905        -1.28180
C          3.62572        23.43549        -1.06557
C          2.40063        22.73350        -1.19336
C          3.61186        24.84043        -0.76933
C          2.35844        25.52451        -0.61988
C          3.58981        27.60326        -0.04700
C          2.34631        26.90651        -0.26404
C          3.60668        28.95239         0.41362
C          2.31685        29.59247         0.77412
C          3.56617        31.83301         0.99122
C          2.29054        31.09437         1.11919
C          3.58319        33.20422         0.89274
C          2.33940        33.98239         1.12453
C          3.56710        36.09811         0.67058
C          2.33565        35.43175         0.86716
C          3.59050        37.52784         0.60392
C          2.35928        38.23666         0.67149
C          6.01821         3.87436         1.79884
C          4.78460         4.58236         1.73763
C          6.02973         6.66394         1.25990
C          4.78703         5.99305         1.44230
C          6.04024         8.06560         0.96089
C          4.82640         8.77755         0.78904
C          6.12840        10.86667         0.36871
C          4.85007        10.19626         0.50602
C          6.15754        12.17951        -0.25805
C          4.94300        12.91400        -0.44132
C          6.14433        14.72273        -1.55305
C          4.96628        14.25144        -0.96550
C          6.24706        16.09920        -2.01235
C          4.99358        17.02089        -1.96015
C          6.18327        19.34681        -2.41917
C          4.93512        18.47508        -2.44879
C          6.15064        20.73693        -1.89596
C          4.85047        21.32342        -1.53650
C          6.10494        23.38978        -1.08082
C          4.87299        22.72715        -1.17684
C          6.09038        24.84636        -0.91129
C          4.82398        25.53968        -0.61450
C          6.04762        27.58734         0.08390
C          4.82891        26.91715        -0.23036
C          6.05814        28.94389         0.46510
C          4.81581        29.63478         0.60700
C          6.08420        31.79628         0.79078
C          4.84036        31.03852         1.18813
C          6.06372        33.20190         0.61488
C          4.81276        33.94210         0.65773
C          6.00129        36.08666         0.19038
C          4.78185        35.33621         0.53526
C          6.03917        37.55135         0.38393
C          4.82910        38.22813         0.53283
C          8.48470         3.79749         1.68225
C          7.25046         4.51614         1.61233
C          8.48122         6.63747         1.24257
C          7.25501         5.94656         1.36802
C          8.49849         8.03980         1.08565
C          7.29295         8.75437         0.90100
C          8.58603        10.88696         0.62725
C          7.30784        10.16663         0.63605
C          8.61345        12.23352        -0.15194
C          7.36473        12.71639        -0.72032
C          8.69558        14.49466        -1.92880
C          7.32192        13.79610        -1.77539
C          8.72192        15.94400        -2.24995
C          7.53833        16.49848        -2.62354
C          8.62783        19.16827        -1.78127
C          7.52703        18.74080        -2.43438
C          8.56212        20.44666        -0.96103
C          7.38916        21.32923        -1.34469
C          8.62663        23.35256        -0.69241
C          7.37317        22.67698        -1.04057
C          8.63702        24.72277        -0.41752
C          7.39080        25.51450        -0.54962
C          8.60208        27.51508         0.46139
C          7.29568        26.80882         0.17245
C          8.55821        28.98032         0.56306
C          7.32244        29.64636         0.64822
C          8.54424        31.79647         0.68266
C          7.30555        31.08659         0.71704
C          8.52702        33.21974         0.62521
C          7.29548        33.89391         0.48635
C          8.55676        36.08888         0.44577
C          7.32198        35.33188         0.19282
C          8.51589        37.51926         0.44290
C          7.29311        38.21118         0.38709
C         10.96835         3.73689         1.50801
C          9.72574         4.41596         1.47450
C         11.07090         6.57265         1.24769
C          9.73496         5.85883         1.15965
C         11.07143         8.05337         1.42225
C          9.77568         8.78248         1.23367
C         11.07496        10.80007         0.52855
C          9.85785        10.17267         0.76443
C         11.07795        12.10850        -0.10494
C          9.93087        12.68353        -0.60430
C         11.25827        14.65586        -1.56729
C          9.97931        13.86521        -1.49167
C         11.23817        16.15946        -1.86259
C          9.89221        16.81422        -1.86536
C         11.13098        19.06262        -1.43873
C          9.84760        18.31401        -1.60415
C         11.08207        20.46378        -1.11840
C          9.88864        21.19325        -0.97384
C         11.08222        23.34295        -0.58399
C          9.87648        22.61443        -0.71519
C         11.10126        24.75721        -0.37342
C          9.85663        25.44785        -0.20269
C         11.06800        27.57366         0.12657
C          9.86216        26.83768         0.09249
C         11.04754        28.98975         0.38703
C          9.80085        29.68240         0.55359
C         11.01523        31.82941         0.77015
C          9.79007        31.10226         0.66604
C         10.96504        33.24393         0.86684
C          9.75994        33.95420         0.70112
C         10.98722        36.13345         0.84253
C          9.75013        35.39639         0.68908
C         10.94581        37.58292         0.82633
C          9.75186        38.23184         0.63399
C         13.47092         3.68076         1.45611
C         12.21957         4.40940         1.51168
C         13.53460         6.55155         1.79575
C         12.27220         5.81729         1.58033
C         13.57580         8.02212         1.39441
C         12.32888         8.74661         1.09573
C         13.61920        10.67469         0.36792
C         12.34255        10.07567         0.70393
C         13.66088        12.12364         0.09310
C         12.34597        12.86308        -0.16526
C         13.63239        14.84123        -0.92054
C         12.43436        14.12547        -0.89250
C         13.63302        16.24139        -1.26813
C         12.42888        16.93650        -1.49775
C         13.62038        19.08159        -1.32612
C         12.36249        18.36668        -1.41228
C         13.63740        20.48161        -1.16992
C         12.36853        21.12762        -0.80589
C         13.61472        23.37988        -0.76019
C         12.36902        22.63012        -0.54581
C         13.58322        24.79575        -0.56699
C         12.32534        25.47716        -0.29286
C         13.53078        27.64131        -0.03063
C         12.32196        26.89452        -0.07387
C         13.51606        29.04339         0.19473
C         12.26886        29.71924         0.42288
C         13.50700        31.82686         0.76950
C         12.27470        31.12893         0.68728
C         13.51376        33.23501         1.18546
C         12.18571        33.98810         1.20205
C         13.47018        36.14859         0.97007
C         12.18197        35.44767         1.03441
C         13.48639        37.66375         1.03053
C         12.16752        38.40140         1.19840
C         15.91043         3.58699         1.26908
C         14.69961         4.31092         1.46783
C         16.04915         6.46516         1.28350
C         14.84233         5.75840         1.89626
C         16.04314         7.86205         1.01018
C         14.84776         8.61043         0.93883
C         16.05453        10.51406        -0.16279
C         14.80849         9.93616         0.40332
C         16.09391        12.01372        -0.54904
C         14.87386        12.79527        -0.35847
C         16.13306        14.86912        -0.72466
C         14.87708        14.16085        -0.62377
C         16.10509        16.25163        -0.98019
C         14.87949        16.95731        -1.23318
C         16.08867        19.11719        -1.55615
C         14.84802        18.35928        -1.36691
C         16.06926        20.57184        -1.43052
C         14.86444        21.23334        -1.18751
C         16.02780        23.42374        -1.16825
C         14.84207        22.69143        -1.02374
C         15.99539        24.88403        -1.07726
C         14.76614        25.53660        -0.63169
C         16.05186        27.69836        -0.39707
C         14.83919        26.89416         0.00474
C         15.95698        29.16082        -0.33686
C         14.72781        29.80991         0.15117
C         16.00363        31.93562         0.53043
C         14.74346        31.18712         0.45478
C         16.01767        33.31572         0.94742
C         14.76704        34.02048         1.12843
C         15.92211        36.15963         1.56331
C         14.71584        35.39803         1.23521
C         15.92697        37.64221         1.55055
C         14.72154        38.33338         1.45374
C         18.34202         3.47455         0.93356
C         17.14268         4.23394         1.13938
C         18.46388         6.27468         0.72612
C         17.21642         5.68339         1.08854
C         18.58174         7.74324         0.62331
C         17.32668         8.55891         0.74378
C         18.54196        10.53929        -0.21077
C         17.33328         9.88850         0.10880
C         18.57080        11.96977        -0.46450
C         17.37587        12.71231        -0.53101
C         18.62124        14.82184        -0.58468
C         17.37699        14.14965        -0.55897
C         18.65992        16.28753        -0.53434
C         17.33113        17.02912        -0.78783
C         18.65808        19.16996        -1.10401
C         17.42129        18.39819        -1.34771
C         18.63284        20.57361        -1.25599
C         17.35979        21.27473        -1.57955
C         18.58244        23.51115        -1.14193
C         17.32495        22.79684        -1.48275
C         18.57036        24.91066        -0.95594
C         17.29684        25.65995        -1.06223
C         18.51889        27.80708        -0.56689
C         17.25753        27.08844        -0.64817
C         18.52677        29.20251        -0.32363
C         17.25982        29.95400        -0.32248
C         18.47569        32.01382         0.35854
C         17.23077        31.32033         0.23363
C         18.47542        33.40219         0.69023
C         17.23419        34.02324         1.00981
C         18.47688        36.22070         1.31741
C         17.25724        35.41654         1.47941
C         18.41510        37.62966         1.54083
C         17.16739        38.30044         1.70232
C         19.54068         4.08570         0.65884
C         20.88247         6.17680         0.26016
C         19.61582         5.50619         0.52669
C         20.95736         7.49336        -0.03936
C         19.68990         8.28725        -0.26202
C         20.97479        10.49067        -0.36334
C         19.78228         9.80411        -0.19962
C         21.00834        11.89461        -0.50163
C         19.83607        12.65033        -0.56850
C         21.03338        14.83837        -0.91668
C         19.84979        14.10528        -0.69934
C         21.05065        16.24203        -1.01914
C         19.90338        17.00849        -0.82640
C         21.05877        19.22884        -0.77685
C         19.87411        18.46442        -0.88185
C         21.02752        20.61030        -0.85936
C         19.82489        21.32301        -1.08819
C         20.98639        23.52138        -0.82708
C         19.80023        22.78758        -1.05226
C         20.97413        24.89819        -0.67969
C         19.76789        25.62882        -0.72878
C         20.94411        27.80290        -0.38378
C         19.74777        27.08552        -0.57480
C         20.94470        29.17318        -0.16005
C         19.73927        29.90037        -0.11299
C         20.90237        32.08683         0.19090
C         19.71821        31.34110         0.13481
C         20.89339        33.45839         0.45782
C         19.70146        34.14422         0.71717
C         20.86323        36.37275         0.91208
C         19.69136        35.58731         0.97959
C         20.82192        37.74505         1.18117
C         19.62238        38.37505         1.48738
O          7.86355        26.78663         1.51654
O          1.69099        33.64149         2.39975
O          8.55532        12.16079         1.32009
O         10.49936         6.18214        -0.06348
O         12.80200        33.49740         2.45163
O          9.48652        13.65334        -2.86626
O          4.10847        18.88348        -3.56418
O         12.98411        12.89699         1.15282
O         16.58514        35.62614         2.76440
O          6.91029        25.58718        -1.92676
O         17.40472        22.11390        -2.78295
O         16.48073        29.81161        -1.55558
O          6.63644        35.66825        -1.06787
O          7.60788        17.68365        -3.34309
O         18.31466         8.45436         1.85666
O         10.36284         8.57019         2.58986
O          2.28786        30.06419         2.16972
O          5.94602        17.01481        -0.84966
O         16.89575        18.57308        -2.68720
O         13.52495         7.58641         2.83584
O         16.60411        25.48669        -2.34246
O         11.49425        15.19330        -2.91009
O         12.43877        21.66348         0.57079
O         17.88074        16.90689         0.55496
O          3.22435        13.28102         1.23268
O         15.92699        10.96147        -1.56112
O          6.18016        20.45834        -3.37245
O         13.59757        36.98456        -0.26790
O          1.73348        20.65741        -0.12158
O          9.64620        17.34285        -0.48997
O          2.23845         9.99253        -1.20250
H          2.92223         9.33364        -1.45207
O          8.31218        20.06219         0.42832
H          8.87538        19.28243         0.62964
O         12.04155        38.83157         2.56691
H         11.87132        38.04732         3.12822
O         19.24769         7.98435        -1.62721
H         19.92718         8.32134        -2.24800
O          2.50023        16.75921        -3.70439
H          3.06095        17.49410        -4.06190
O          0.64846        13.15657         1.61403
H          1.45977        13.28415         2.15769
O         15.08426        26.60901         1.45141
H         14.26441        26.20617         1.81193
O          4.93898        30.84708         2.64189
H          4.07545        30.45944         2.92626
O          7.03125        13.14896        -3.05531
H          7.90105        12.88997        -3.44414
O         15.15981         5.66576         3.31758
H         14.89580         6.52833         3.71619
H          1.08884         2.92157         2.38494
H         -1.04394         4.20288         2.30988
H         -1.05452         6.61620         1.79880
H         -0.96467         8.58119         1.71890
H         -0.85823        11.01445         1.36214
H         -0.87446        12.23304        -0.69718
H         -0.78068        14.31193        -1.97928
H         -0.98253        16.37711        -1.82049
H         -1.00943        18.82531        -1.86619
H         -0.98285        20.86664        -2.07763
H         -0.96980        23.24340        -1.62572
H         -1.03843        25.01897        -0.87598
H         -1.06610        27.36967        -0.27104
H         -1.06318        29.23463         0.07321
H         -1.10028        31.60481         0.58695
H         -1.17407        33.58068         0.75503
H         -1.05683        36.02308         0.70536
H          0.21005        38.12617         0.77550
H          3.53840         2.86066         2.18292
H          2.37636        39.33493         0.62292
H          5.99841         2.79321         2.00288
H          4.82487        39.32600         0.60506
H          8.45090         2.71904         1.89947
H          7.30624        39.30976         0.45162
H         10.96725         2.64080         1.60639
H          9.72032        39.33116         0.67052
H         13.42927         2.59274         1.29220
H         12.19443        39.33392         0.57841
H         15.86360         2.49272         1.15613
H         14.69772        39.41970         1.62436
H         18.28460         2.37849         1.00304
H         17.17410        39.39758         1.78735
H         20.45204         3.48616         0.52134
H         21.80142         5.57398         0.32372
H         21.93714         7.95092        -0.24147
H         21.93031         9.94737        -0.37604
H         21.98889        12.38415        -0.57527
H         21.98550        14.30593        -1.04467
H         22.00683        16.73548        -1.24427
H         22.01845        18.72510        -0.59768
H         21.97446        21.15156        -0.73907
H         21.95425        23.00778        -0.77019
H         21.93115        25.41013        -0.51820
H         21.91047        27.28296        -0.39795
H         21.90707        29.67879        -0.00817
H         21.87050        31.60214         0.00888
H         21.85393        33.98991         0.47295
H         21.82721        35.91447         0.65501
H         21.75020        38.33141         1.13424
H         19.59483        39.45857         1.67039
