         671
 CSIRO Nanostructure Databank - Neutral Graphene Oxide Data Set
C          5.98040        31.70376        -0.43651
C          6.00130        33.07091        -0.53551
C          8.46604        27.43286        -0.19679
C          8.43573        28.82012        -0.13692
C          7.20745        29.55334        -0.29247
C          8.39722        31.65475         0.19524
C          7.16658        30.92789        -0.18590
C          8.41525        33.16078         0.10842
C          7.20041        33.85204        -0.36993
C          8.38766        36.04431        -0.39834
C          7.23128        35.20910        -0.60982
C          8.24660        37.39779        -0.64693
C         10.89240        23.15974        -0.04182
C         10.84288        24.52698         0.17107
C          9.66201        25.28583        -0.04372
C         10.92844        27.38918         0.16591
C          9.67333        26.68411        -0.01724
C         10.99170        28.84960        -0.20433
C          9.67862        29.57074        -0.01942
C         10.96045        31.69885        -0.10961
C          9.67854        30.92763         0.10375
C         10.89189        33.17539         0.21416
C          9.71442        33.86554         0.05501
C         10.91892        36.00616         0.41222
C          9.74589        35.33958        -0.28481
C         10.95824        37.36693         0.69424
C          9.24901        38.37330        -0.24117
C         10.96231        40.19555        -0.27144
C          9.79486        39.47867        -0.82015
C         11.05508        41.54735        -0.55770
C         13.27552        18.86470         0.05809
C         13.25242        20.22054         0.29040
C         12.08627        21.00932         0.01862
C         13.33770        23.08722         0.44488
C         12.09023        22.39139         0.15990
C         13.34659        24.58015         0.22475
C         12.05948        25.21938         0.75151
C         13.32034        27.40559         0.77170
C         12.08287        26.71451         0.50231
C         13.30833        28.85779         0.82703
C         12.15213        29.57943         0.43835
C         13.31516        31.70357         0.85202
C         12.16005        30.97838         0.45660
C         13.31849        33.15594         0.79548
C         12.15450        33.85986         0.44582
C         13.35504        36.00508         0.74567
C         12.14722        35.29435         0.50142
C         13.36899        37.42762         0.69932
C         12.14458        38.13646         0.61700
C         13.31677        40.27855         0.55803
C         12.10773        39.55102         0.36016
C         13.33404        41.69562         0.42218
C         12.16624        42.35107        -0.13577
C         13.21562        44.56587         0.32793
C         12.13315        43.72772        -0.27441
C         13.32343        45.93539        -0.26096
C         15.79746        14.72764        -1.06548
C         15.79306        16.00505        -0.36898
C         14.64521        16.78679        -0.47433
C         15.71419        18.69148         0.82755
C         14.46363        18.03191         0.28578
C         15.67158        20.15426         1.19997
C         14.41383        20.92430         0.90332
C         15.75968        23.08999         0.94418
C         14.48268        22.40250         0.77027
C         15.76677        24.53787         0.94124
C         14.56998        25.26635         0.78207
C         15.72950        27.36906         1.43780
C         14.50296        26.66725         1.00559
C         15.69939        28.86481         1.53748
C         14.45486        29.59312         1.22079
C         15.67329        31.72352         1.84890
C         14.47451        30.99635         1.24865
C         15.71950        33.19290         1.48843
C         14.54123        33.86812         1.08319
C         15.80010        35.99270         1.08905
C         14.57045        35.28882         0.97074
C         15.81710        37.44415         0.96736
C         14.59709        38.15086         0.78934
C         15.76796        40.28038         1.03508
C         14.56347        39.57394         0.81439
C         15.71289        41.76182         1.31475
C         14.51278        42.45569         0.69688
C         15.76420        44.55736         0.33224
C         14.52894        43.83222         0.44974
C         15.78829        45.84066        -0.18277
C         14.54219        46.56111        -0.43136
C         15.79093        48.69630        -0.61711
C         14.59505        47.96639        -0.70804
C         15.81013        50.15049        -0.79638
C         18.22701        10.49064        -1.81359
C         18.22971        11.79731        -1.17578
C         17.03818        12.52730        -1.42642
C         18.37089        14.51032         0.24718
C         16.63391        13.67996        -0.70705
C         18.23626        15.94543         0.33414
C         17.00149        16.59283         0.21540
C         18.21011        18.70884         1.06640
C         17.01057        18.12387         0.28239
C         18.22601        20.21556         1.01102
C         16.97892        20.91265         1.49201
C         18.21696        23.07350         1.14545
C         16.95303        22.38228         1.11563
C         18.20933        24.50552         1.17133
C         17.01855        25.22156         1.14525
C         18.20372        27.38323         1.23739
C         17.03261        26.67896         1.25639
C         18.22468        28.85987         1.09985
C         16.95297        29.61678         1.22035
C         18.20450        31.72102         1.61357
C         17.00551        31.05783         1.52429
C         18.13709        33.13447         2.17581
C         16.93347        33.89065         1.62834
C         18.29069        35.98643         1.08729
C         16.98490        35.27485         1.36017
C         18.28435        37.46802         1.51860
C         17.00449        38.18021         1.15308
C         18.22238        40.34376         1.67568
C         16.98537        39.58772         1.19796
C         18.19813        41.79189         1.22334
C         17.02932        42.44958         1.03454
C         18.28754        44.61173         0.63181
C         16.98443        43.96102         0.99015
C         18.40071        45.77765        -0.32310
C         17.04867        46.52265        -0.66865
C         18.28087        48.76923        -0.68206
C         17.01027        48.00576        -0.48220
C         18.18776        50.21232        -0.11299
C         16.93172        50.88866        -0.62111
C         18.21501        53.09551        -0.87107
C         16.87821        52.39651        -0.70183
C         18.22076        54.46081        -1.02784
C         20.68699         6.21394        -2.68940
C         20.59562         7.62111        -2.11926
C         19.33236         8.19253        -2.11159
C         20.86878        10.41727        -0.97577
C         19.06225         9.44928        -1.46858
C         20.73546        11.81925        -0.88843
C         19.45102        12.42346        -0.64159
C         20.77209        14.53539        -0.15854
C         19.48226        13.80317        -0.20790
C         20.74858        15.99750         0.14387
C         19.46650        16.72044         0.34582
C         20.70991        18.84178         0.54647
C         19.47833        18.07471         0.55717
C         20.67557        20.22071         0.83104
C         19.42970        20.92068         1.00037
C         20.71243        23.09764         1.04299
C         19.44746        22.37086         1.12883
C         20.74151        24.51414         1.10485
C         19.48555        25.23255         1.52016
C         20.74577        27.43028         1.43572
C         19.49785        26.65884         0.97153
C         20.67022        28.90660         1.09828
C         19.50009        29.60837         1.20468
C         20.71200        31.73546         1.58888
C         19.49231        31.05575         1.40991
C         20.72917        33.08344         2.31171
C         19.45680        33.90624         2.11935
C         20.80066        36.01658         1.40778
C         19.51465        35.33044         1.68475
C         20.78888        37.43112         1.13538
C         19.49647        38.19558         0.90396
C         20.72163        40.31502         1.22991
C         19.54608        39.64946         1.34250
C         20.78907        41.80783         1.17028
C         19.48329        42.52160         1.07263
C         20.70904        44.74779         1.14282
C         19.44111        43.99826         1.02299
C         20.75891        46.09582         0.58316
C         19.55057        46.69597         0.06317
C         20.67556        48.90820         0.21241
C         19.48953        48.05082        -0.12624
C         20.63658        50.22760        -0.51492
C         19.46501        50.92085        -0.51758
C         20.67069        53.02523        -0.80326
C         19.46441        52.35674        -0.80207
C         20.69191        54.48773        -0.79248
C         19.44233        55.22325        -1.05939
C         20.72256        57.28555        -1.52594
C         19.48356        56.58031        -1.30137
C         20.71790        58.64441        -1.88607
C         23.11428         3.45303        -1.61269
C         21.91456         4.12077        -1.98172
C         23.13408         6.22901        -2.14139
C         21.91882         5.48016        -2.22292
C         23.08288         7.64363        -2.20210
C         21.84576         8.33676        -1.93082
C         23.07260        10.55206        -2.01460
C         21.90354         9.73104        -1.63524
C         23.11328        11.95962        -1.58203
C         21.96445        12.58037        -1.10759
C         23.17213        14.72009        -0.84703
C         21.98242        13.97909        -0.79045
C         23.18989        16.09827        -0.45131
C         21.87694        16.83247        -0.41123
C         23.16712        18.87245         0.30827
C         21.92681        18.18478         0.23418
C         23.17623        20.24663         0.61261
C         21.95758        20.93448         1.14089
C         23.14306        23.11249         0.58881
C         21.93548        22.41114         0.87128
C         23.12525        24.53374         0.54180
C         21.94095        25.23856         0.87401
C         23.15838        27.39756         0.74597
C         21.97846        26.69923         0.93335
C         23.18327        28.88077         0.71482
C         21.91663        29.65796         0.90303
C         23.22313        31.67701         1.45417
C         21.96434        31.06490         1.35346
C         23.29557        33.12055         1.77421
C         22.03339        33.89684         2.07591
C         23.24013        35.97626         1.34902
C         22.02039        35.32787         1.62063
C         23.25092        37.38552         0.80511
C         21.96860        38.12847         1.02848
C         23.22165        40.31937         1.13193
C         21.95717        39.60615         0.70937
C         23.22899        41.69137         1.48834
C         22.06424        42.51763         1.46924
C         23.26722        44.85089         1.32662
C         22.03925        44.00629         1.53376
C         23.25796        46.15965         0.79666
C         21.99230        46.82525         0.49492
C         23.20895        49.02097         0.10725
C         21.97513        48.16673         0.15179
C         23.14639        50.00807        -1.09499
C         21.86228        50.88630        -1.13367
C         23.20950        53.00100        -1.09588
C         21.98338        52.29921        -0.54100
C         23.22068        54.37004        -1.32627
C         22.01760        55.19023        -1.04020
C         23.14785        57.19281        -1.97025
C         21.96339        56.57712        -1.52084
C         23.13418        58.56713        -2.32948
C         21.91076        59.30478        -2.26529
C         23.10439        61.30446        -3.01022
C         21.92498        60.68477        -2.61708
C         24.29923         4.13958        -1.51760
C         25.55752         6.25364        -1.63834
C         24.36579         5.54620        -1.80191
C         25.67671         7.61979        -2.10839
C         24.34146         8.36357        -2.39871
C         25.63549        10.58342        -2.08355
C         24.36456         9.85871        -2.35140
C         25.62031        11.94376        -1.93635
C         24.33346        12.76818        -1.99984
C         25.60661        14.75129        -1.04911
C         24.41500        14.09210        -1.25448
C         25.65423        16.09931        -0.50043
C         24.38979        16.78423        -0.27598
C         25.62082        18.85790         0.32886
C         24.39902        18.17483         0.08101
C         25.61814        20.23088         0.51467
C         24.38869        20.96814         0.51859
C         25.62683        23.05699         0.01205
C         24.37370        22.37967         0.40618
C         25.62027        24.55366        -0.06737
C         24.28809        25.31797        -0.03564
C         25.60963        27.41416         0.44740
C         24.39826        26.72570         0.48784
C         25.65037        28.85268         0.69383
C         24.46979        29.57519         0.88992
C         25.69129        31.70265         1.07141
C         24.45675        30.99026         1.13695
C         25.72262        33.13473         1.23207
C         24.52334        33.84566         1.41650
C         25.70787        35.98687         1.36640
C         24.49957        35.28283         1.39370
C         25.69879        37.44507         1.49192
C         24.46807        38.19300         1.19758
C         25.73911        40.33627         1.14822
C         24.44897        39.58043         1.19139
C         25.74866        41.75145         1.58341
C         24.51009        42.21943         1.94425
C         25.74938        44.87860         1.41603
C         24.49882        44.38399         1.80703
C         25.72283        46.19629         0.90301
C         24.49146        46.86640         0.68080
C         25.67254        48.85297        -0.18723
C         24.50421        48.23199         0.14835
C         25.69056        50.00800        -1.17880
C         24.41798        50.83533        -1.13551
C         25.71881        52.98060        -1.31719
C         24.41988        52.20163        -1.22230
C         25.57069        54.22686        -2.23701
C         24.38713        55.06109        -1.81069
C         25.59363        57.10196        -2.49409
C         24.37293        56.42570        -2.07820
C         25.55397        58.46908        -2.80089
C         24.34459        59.21722        -2.74275
C         24.30710        60.58807        -3.07582
C         26.86361         8.44170        -1.81243
C         28.11689        10.53797        -1.72649
C         26.87874         9.81963        -1.89845
C         28.17674        11.92258        -1.71494
C         26.90420        12.67225        -1.85698
C         28.16478        14.66413        -0.87865
C         26.89013        14.10616        -1.41584
C         28.15029        16.07160        -0.41108
C         26.84697        16.76214        -0.28091
C         28.15196        18.86128         0.38588
C         26.87568        18.04612         0.50992
C         28.12066        20.19951         0.66733
C         26.85842        20.99387         0.88409
C         28.15517        23.12064         0.43232
C         26.95002        22.27796         0.04724
C         28.13421        24.53652         0.39186
C         26.88277        25.28706         0.20005
C         28.15595        27.39479         0.17989
C         26.84519        26.66330         0.29998
C         28.09146        28.85858         0.50541
C         26.91390        29.56278         0.65640
C         28.10748        31.75473         0.61065
C         26.91688        31.02013         0.77961
C         28.14690        33.17459         0.83897
C         26.97058        33.83820         1.18576
C         28.25591        36.03077         1.30113
C         26.99728        35.26675         1.66877
C         28.28591        37.41065         1.34994
C         27.02142        38.15515         1.56583
C         28.27934        40.35944         1.63844
C         27.02937        39.60979         1.23203
C         28.17711        41.84422         1.32034
C         26.99480        42.52764         1.53164
C         28.18665        44.70797         0.90738
C         27.03806        44.08398         1.68654
C         28.27626        46.16720         0.92733
C         26.99205        46.96557         0.89209
C         28.16005        48.74815        -0.52011
C         26.98962        48.42491         0.43386
C         28.14146        50.22868        -0.83479
C         26.96423        50.81555        -1.12640
C         28.17570        52.94637        -1.76237
C         26.89207        52.14177        -1.83609
C         28.09673        54.33614        -2.11648
C         26.87974        55.00376        -2.27282
C         26.82117        56.38641        -2.52887
C         29.40013        12.65588        -1.60465
C         30.63123        14.77282        -1.15786
C         29.44072        14.02751        -1.30193
C         30.65837        16.14291        -0.77538
C         29.36191        16.92198        -0.71917
C         30.62323        18.83610         0.26400
C         29.41641        18.19848         0.09217
C         30.66451        20.21295         0.79288
C         29.35463        20.96548         0.89041
C         30.59231        23.12364         0.78746
C         29.35968        22.43572         0.71168
C         30.57113        24.54622         0.79856
C         29.34084        25.22869         0.67270
C         30.58637        27.43158         0.79897
C         29.26996        26.71028         0.96865
C         30.62364        28.79681         0.59960
C         29.37329        29.54446         0.30289
C         30.64019        31.76040         0.40939
C         29.36243        31.05271         0.28353
C         30.55152        33.22530         0.02908
C         29.39864        33.92559         0.72259
C         30.76365        36.01361         1.15671
C         29.45223        35.27774         0.98402
C         30.71159        37.49959         0.89192
C         29.49983        38.19636         1.10632
C         30.68272        40.32882         0.78293
C         29.49223        39.61759         1.09462
C         30.66679        41.75602         0.64663
C         29.32858        42.48276         0.57185
C         30.56306        44.61173         0.05055
C         29.49366        43.96689         0.94914
C         30.73646        46.10007         0.20814
C         29.56074        46.87668         0.55999
C         30.70782        48.87575        -0.65906
C         29.50840        48.29690         0.00696
C         30.62875        50.19869        -1.07425
C         29.41974        51.01931        -0.69933
C         29.35045        52.37258        -1.35756
C         31.84698        16.84948        -0.61812
C         33.07555        18.89879        -0.00177
C         31.88565        18.21484        -0.14974
C         33.17536        20.21740         0.72940
C         31.89532        20.99751         0.65762
C         33.09296        23.10972         0.74275
C         31.86578        22.39370         0.76724
C         33.14349        24.57373         1.09529
C         31.80967        25.29464         0.96328
C         33.07892        27.40797         1.27181
C         31.80011        26.67278         0.95786
C         33.05167        28.88900         0.94045
C         31.87733        29.53296         0.65262
C         33.17740        31.73110         0.32927
C         31.86135        30.98081         0.28769
C         33.19824        33.21298         0.16795
C         31.87648        33.97751         0.08619
C         33.15891        36.06342         0.42112
C         31.94080        35.37039         0.49249
C         33.16702        37.49416         0.51211
C         31.92343        38.19762         0.67249
C         33.12973        40.33065         0.36660
C         31.91010        39.62102         0.59733
C         33.09479        41.74120         0.22933
C         31.85376        42.42789         0.34169
C         32.94951        44.41915        -0.77473
C         31.92574        43.93738         0.26644
C         32.99215        45.91405        -0.78712
C         31.89461        46.70449        -0.38959
C         31.88264        48.09725        -0.72665
C         34.37055        21.04680         0.38022
C         35.55830        23.20708         0.36125
C         34.33712        22.43026         0.48748
C         35.56275        24.58949         0.33177
C         34.20846        25.28028         0.23195
C         35.58410        27.48527         0.55678
C         34.27345        26.77242         0.54286
C         35.65753        28.87161         1.13281
C         34.34199        29.60689         1.14391
C         35.66274        31.83503         0.89509
C         34.35704        31.10292         1.00067
C         35.66366        33.25905         0.48217
C         34.44689        33.95398         0.41425
C         35.64437        36.08263         0.23417
C         34.41395        35.36404         0.29929
C         35.62876        37.50420         0.20440
C         34.38773        38.20620         0.33864
C         35.60281        40.34990         0.09004
C         34.37038        39.62729         0.26994
C         35.55992        41.75695        -0.03664
C         34.32877        42.46731        -0.05793
C         34.28042        43.79614        -0.48588
C         36.77881        25.33456         0.25634
C         38.04421        27.47211         0.23285
C         36.84892        26.73345         0.35539
C         38.14421        28.87394         0.45927
C         37.01347        29.61796         1.16437
C         38.16906        31.83072         0.66647
C         36.88913        31.02456         0.51921
C         38.13838        33.25379         0.33412
C         36.89574        33.95488         0.30884
C         38.11627        36.08801         0.01293
C         36.87938        35.37185         0.16557
C         38.08195        37.49810        -0.05596
C         36.86366        38.22331         0.05158
C         36.82526        39.63686         0.00336
C         39.28792        29.58916         0.12122
C         40.58802        31.80797        -0.13530
C         39.46004        31.02124         0.39814
C         40.55597        33.16546        -0.18401
C         39.35144        33.94737         0.06678
C         39.32896        35.34237        -0.08724
O         25.60878        23.74560        -1.31125
O         27.00431        13.77998        -2.83449
O         19.39055        35.00038         3.11487
O         23.53331        10.41568        -3.43296
O         25.15686         7.82531        -3.47584
O         28.23884        14.97771         0.57128
O         32.76801        31.12244        -0.92744
O         18.78793        45.08288        -1.49561
O         17.22320        13.78839         0.57377
O         39.05440        31.46067         1.73993
O         34.97217        29.11535         2.39820
O          9.77991        38.02957         1.02418
O         21.18458        44.61096         2.54400
O         14.94362        17.86085         1.70174
O         14.70807        20.42328         2.26416
O         34.70373        27.51063        -0.64387
O         32.65954        33.66918        -1.11706
O         34.94969        31.71727         2.18125
O         15.66317        28.06321         2.75198
O          8.23025        32.47696         1.40844
O         29.72143        48.08198         1.41011
O         21.08835        15.07887         1.21266
O         29.35591        30.25768        -0.99327
O         30.03566        20.47025         2.10843
O         21.50211        55.01875         0.33699
O         22.45843        29.43215        -0.46472
O         24.44788        43.35740         2.74493
O         25.22763        53.83066        -3.54869
O         17.46688        29.28318        -0.12439
O         22.94985        33.58385         3.17168
O         19.88067         9.66112        -0.33379
O         26.33341        37.85979         2.82202
O         26.53471        39.99648        -0.07645
O         20.22568        42.13549        -0.17940
O         27.67518        46.79705         2.18667
O         27.98506        47.99758        -1.74229
H         27.19582        48.36647        -2.22222
O         17.09665        18.61664        -1.08437
H         17.94410        18.30152        -1.46607
O         19.49738         5.47579        -2.41037
H         19.40118         5.40267        -1.43888
O         20.68205        32.69898         3.71649
H         21.60650        32.78744         4.06137
O         28.55193        27.30987        -1.21966
H         28.13484        28.04894        -1.71094
O         29.10377        17.36614        -2.09406
H         29.88318        17.87823        -2.39695
O         23.88578        25.54402        -1.42769
H         24.21914        24.77042        -1.94204
O         18.45563        48.89843        -2.12408
H         18.15287        48.04432        -2.52207
O         11.25909        28.89559        -1.66116
H         12.03711        28.32305        -1.83617
O         23.08572        49.16314        -2.26934
H         24.01194        49.02265        -2.59812
O         23.22549        49.82901         1.32586
H         23.64217        49.30108         2.03952
O         26.66039        51.76493        -3.22049
H         26.12125        52.51459        -3.64797
O         16.78751        44.33955         2.40528
H         16.15574        43.68483         2.79653
O         19.59962        26.52491        -0.46855
H         19.56306        27.42070        -0.86694
O         33.76423        25.14074        -1.13353
H         34.16891        25.88210        -1.64072
O         18.47173        35.87912        -0.34433
H         17.75881        36.38165        -0.79061
O         11.15440        31.70398        -1.57267
H         11.23574        30.75522        -1.85387
O         31.03428        35.90279         2.61183
H         30.27124        36.30514         3.08104
O         26.85696        17.60933         1.91931
H         27.44998        16.82982         1.99745
O         28.91551        26.83139         2.37771
H         29.64727        26.45256         2.90923
O         29.95996        43.99742         2.33459
H         29.14573        44.00261         2.90915
O         19.47173        25.27156         2.98809
H         19.49207        24.34520         3.31123
O         20.86641        27.47555         2.88509
H         20.49364        26.63921         3.26171
O         21.56228        51.12958        -2.52274
H         21.81821        50.30949        -3.00897
O         17.00131        46.52115        -2.13275
H         17.68755        45.79760        -2.37557
O         26.77367        21.38348         2.27382
H         26.80674        20.56996         2.82032
O         27.03905        35.18129         3.14521
H         26.82507        36.09002         3.47511
O         10.16409        35.36252        -1.70729
H         10.86694        34.68596        -1.82489
O         18.08813        40.38225         3.13383
H         18.16200        39.44361         3.44067
O         22.12696        52.24660         0.90070
H         22.01462        53.17184         1.22250
O         28.36193        40.24281         3.08904
H         29.09704        40.81104         3.40046
O         17.87197        32.95402         3.60533
H         18.74883        32.81555         4.04132
O         30.08815        44.51512        -1.30903
H         30.87106        44.45044        -1.91621
O         32.45814        44.40329         1.52831
H         31.76278        44.25598         2.21462
O         17.10537        20.89909         2.96305
H         16.18187        20.96990         3.31116
O         24.11446        13.11484        -3.40073
H         23.98252        12.25911        -3.87767
O         12.77519        44.79428         1.74097
H         12.81008        43.92406         2.19537
O         15.96337        52.81696        -1.72291
H         16.31716        52.52327        -2.58748
O         21.49026        17.06636        -1.81843
H         22.23278        17.53391        -2.25733
O         20.57424        49.27251         1.65740
H         21.36923        49.83899         1.83607
O         28.91191        42.38182        -0.82034
H         28.38151        41.56204        -0.92503
O         22.08404        20.83554         2.62821
H         22.06190        19.88069         2.85633
O         18.40610        37.57024         2.96225
H         18.60344        36.68292         3.34609
O         13.35371        24.80906        -1.21716
H         14.15893        24.38991        -1.58667
O         27.36443        44.26061         3.11555
H         27.37441        45.24005         3.26171
O         18.07323        18.32700         2.46141
H         17.73616        19.11073         2.96277
O         33.61450        24.63612         2.46634
H         32.92604        24.25635         3.05039
O         15.49293        31.63119         3.28990
H         16.26769        32.09187         3.70489
O         26.07408        53.42239         0.00845
H         25.26315        53.73498         0.46152
O         21.90067        39.65933        -0.75872
H         21.02204        39.28190        -1.01351
O         37.39226        29.73718         2.53495
H         36.59435        30.00727         3.04402
O         27.21248        21.80087        -1.29584
H         26.95814        22.52938        -1.90944
O         32.54196        43.97030        -2.13202
H         32.60585        42.99073        -2.14918
O         30.14660        33.22183        -1.37468
H         30.92880        32.91019        -1.88718
O         27.16745        49.26682         1.60251
H         27.65653        48.71605         2.26319
O         18.05453        50.17280         1.32105
H         18.92681        49.88847         1.70243
O         25.73314        49.36616        -2.52372
H         26.00721        50.11622        -3.13133
O         36.71311        30.77127        -0.90380
H         36.56314        31.62408        -1.36467
O         23.36226        37.24242        -0.66728
H         23.06836        38.10758        -1.05038
O         15.52884        41.88115         2.77721
H         16.28735        41.39434         3.18846
O         12.04640        25.00620         2.18509
H         11.24297        25.42988         2.55177
O         19.33997        38.28617        -0.55004
H         18.63001        38.93807        -0.73561
O         29.55110        51.29243         0.74711
H         28.83256        50.81082         1.21816
O         33.21829        27.23491         2.70389
H         33.95432        27.81894         3.01227
O         33.33121        19.87344         2.17433
H         32.44896        19.59173         2.50253
H          5.03798        31.16370        -0.61174
H          5.07388        33.60678        -0.78744
H          7.52529        26.87910        -0.33545
H          6.28995        28.99527        -0.53433
H          6.29910        35.70844        -0.92009
H          7.27892        37.75849        -1.03553
H          9.98496        22.62980        -0.37126
H          8.72731        24.76107        -0.29517
H          9.36981        39.87339        -1.75496
H         10.22587        42.04774        -1.07944
H         12.40007        18.39096        -0.41303
H         11.16250        20.49564        -0.28705
H         11.23306        44.21919        -0.67303
H         12.39311        46.51146        -0.38166
H         15.11365        14.61195        -1.92009
H         13.78922        16.40552        -1.05247
H         13.65392        48.49729        -0.91926
H         14.86979        50.64357        -1.08761
H         17.46736        10.31736        -2.59087
H         16.36599        12.14227        -2.20955
H         16.44323        52.75915         0.27239
H         17.26414        54.99804        -1.11147
H         20.74978         6.30021        -3.81187
H         18.51113         7.63016        -2.58432
H         18.54265        57.13166        -1.44870
H         19.76995        59.20243        -1.88591
H         23.08577         2.37285        -1.41209
H         20.97689         3.55488        -2.07477
H         23.09643        62.37078        -3.27647
H         20.98784        61.25843        -2.57473
H         25.22669         3.61392        -1.24880
H         26.41777         5.77686        -1.14605
H         26.48041        58.97945        -3.10676
H         25.23117        61.09346        -3.39139
H         27.79772         7.91440        -1.56599
H         29.04109         9.95228        -1.61125
H         29.03247        54.92055        -2.13542
H         27.74901        56.93938        -2.74917
H         30.34732        12.10747        -1.72295
H         31.59312        14.26696        -1.33629
H         31.51318        50.69229        -1.50520
H         30.26789        52.98348        -1.33239
H         32.80603        16.33255        -0.77610
H         34.01428        18.40417        -0.29535
H         33.84791        46.40725        -1.27294
H         32.78415        48.53282        -1.18234
H         35.32599        20.53734         0.18382
H         36.51195        22.65814         0.31744
H         36.49436        42.30809        -0.21979
H         35.20831        44.32563        -0.74876
H         37.72057        24.76999         0.16638
H         38.95688        26.93388        -0.06817
H         39.02367        38.05421        -0.17634
H         37.76305        40.19778        -0.12392
H         40.08441        29.08186        -0.44591
H         41.48651        31.26909        -0.47267
H         41.44524        33.71212        -0.53284
H         40.26947        35.87898        -0.28316
