         478
 CSIRO Nanostructure Databank - Neutral Graphene Oxide Data Set
C         37.09556        51.00474         1.99664
C         36.17044        51.37166         1.02075
C         37.89269        52.61681        -0.13640
C         36.57480        52.16694        -0.05585
C         40.56687        49.11344         3.21310
C         40.46884        50.38338         2.62074
C         38.42624        51.43741         1.88850
C         40.22295        52.84472         0.68183
C         38.84149        52.27744         0.84540
C         40.24523        54.30158         0.45369
C         42.91040        48.97996         2.59955
C         41.74746        48.38727         3.13006
C         42.82029        50.30283         2.09503
C         41.57678        50.96834         1.97097
C         42.76664        53.05022         1.04842
C         41.52607        52.22072         1.14916
C         42.68406        54.37508         0.61169
C         41.40636        55.00456         0.41735
C         45.36644        46.10636         2.54238
C         44.19214        46.83025         2.69028
C         45.38811        48.88066         2.19683
C         44.17149        48.23023         2.51837
C         45.39096        50.35280         2.02349
C         44.06733        51.07504         1.90150
C         45.25312        53.04812         0.98180
C         44.03703        52.41462         1.27902
C         45.23492        54.43078         0.43986
C         43.91434        55.15043         0.32950
C         45.15503        57.30354         0.19562
C         43.95638        56.61611         0.36960
C         47.94777        44.65461         2.42512
C         47.81436        45.98292         2.02116
C         46.58451        46.75070         2.24448
C         47.91266        48.86778         1.92206
C         46.58792        48.15255         2.07746
C         47.76065        50.26251         1.34434
C         46.58537        50.99013         1.42692
C         47.70798        53.02296         0.54083
C         46.51632        52.37635         1.04256
C         47.71031        54.46319         0.24333
C         46.49119        55.24437         0.68108
C         47.63727        57.38724        -0.21623
C         46.40175        56.67028         0.18650
C         47.84601        58.82272         0.00317
C         50.15398        44.39316         1.39870
C         49.13212        43.90655         2.18165
C         49.97052        45.73740         0.72210
C         48.90739        46.61810         1.35203
C         50.08531        48.61951         0.58670
C         48.95641        48.01239         1.19229
C         50.19260        50.07892         0.55038
C         48.97076        50.93263         0.89275
C         50.00320        52.88070        -0.45470
C         48.87775        52.29034         0.37051
C         50.13027        54.35086        -0.16958
C         48.85771        55.11130        -0.11378
C         50.21090        57.26025        -0.48307
C         48.89666        56.56387        -0.41307
C         50.26654        58.67549        -0.46772
C         49.07338        59.40988        -0.19562
C         52.56808        41.47750         0.98995
C         51.39538        42.19196         1.24159
C         52.46481        44.26126         0.55439
C         51.34099        43.61108         1.05010
C         52.55058        45.74064         0.78518
C         51.26371        46.47028         0.52039
C         52.53921        48.50756         0.00108
C         51.27454        47.83624         0.29533
C         52.50900        49.89818        -0.48074
C         51.25186        50.69961        -0.30117
C         52.50352        52.78805        -0.78511
C         51.33141        52.17000        -0.39661
C         52.56840        54.24048        -0.99068
C         51.40488        55.04434        -0.53297
C         52.47852        57.15017        -1.40402
C         51.35565        56.49259        -0.74140
C         52.64633        58.58349        -1.29358
C         51.63228        59.35658        -0.47540
C         52.59745        61.34485        -1.66282
C         51.58745        60.78590        -0.92610
C         54.96667        39.84047         0.28340
C         54.85876        41.29305        -0.00915
C         53.67333        42.06178         0.36742
C         54.95976        44.22951         0.07585
C         53.61853        43.51120        -0.06062
C         54.93681        45.68225         0.07904
C         53.77248        46.40059         0.21574
C         54.99451        48.53462        -0.29303
C         53.75160        47.83168         0.00209
C         54.98879        49.93814        -0.58316
C         53.76128        50.64251        -0.65955
C         54.96217        52.68367        -1.23432
C         53.73944        52.02511        -0.90875
C         54.91232        54.03935        -1.89079
C         53.68952        54.84559        -1.49084
C         54.92901        57.03267        -2.09886
C         53.68006        56.29292        -1.84057
C         54.91663        58.39766        -2.29666
C         53.74687        59.19665        -1.92659
C         54.85444        61.26766        -2.88900
C         53.74291        60.61198        -2.08501
C         54.91350        62.75886        -2.72056
C         57.43738        39.98610         0.67646
C         56.14351        39.23664         0.49122
C         57.44347        41.39058         0.11004
C         56.17504        42.06536        -0.16846
C         57.42686        44.23056        -0.46512
C         56.13972        43.54202        -0.06702
C         57.48876        45.66872        -0.03271
C         56.21476        46.42261         0.08263
C         57.45557        48.53279        -0.46068
C         56.21760        47.86225        -0.21828
C         57.45379        49.91870        -0.74319
C         56.21388        50.63080        -0.79503
C         57.44865        52.69460        -1.59092
C         56.17698        52.01509        -1.13821
C         57.39573        54.20737        -1.49034
C         56.19224        54.83076        -1.72369
C         57.48905        56.96832        -2.22452
C         56.16914        56.22578        -2.18878
C         57.42343        58.42366        -2.23579
C         56.18534        59.08051        -2.81203
C         57.33261        61.30557        -2.42096
C         56.17775        60.58989        -2.61409
C         57.31534        62.75255        -2.21906
C         56.04569        63.42480        -2.41479
C         59.94318        37.22901        -0.34429
C         58.73124        37.88330        -0.02865
C         59.91787        39.97995         0.33833
C         58.69627        39.24029         0.29089
C         59.91972        41.38282         0.29147
C         58.66323        42.10052         0.12376
C         59.92269        44.21910        -0.17951
C         58.70469        43.50444        -0.11677
C         59.93732        45.66657        -0.34574
C         58.73408        46.39918        -0.33717
C         59.94027        48.51364        -0.58617
C         58.70655        47.80550        -0.44809
C         59.92252        49.94832        -0.70225
C         58.70158        50.63611        -0.86859
C         59.86753        52.79446        -0.80990
C         58.69675        52.05045        -1.04028
C         59.70952        54.27547        -0.51586
C         58.62780        54.95879        -1.33908
C         59.88462        57.11207        -1.52640
C         58.68454        56.31156        -1.65614
C         59.95731        58.43682        -1.96678
C         58.70172        59.10802        -2.39861
C         59.90843        61.37734        -2.27950
C         58.64410        60.60734        -2.51992
C         59.72820        62.70450        -1.59293
C         58.46312        63.44853        -1.82241
C         59.58200        65.51649        -1.01688
C         58.47311        64.83946        -1.48346
C         62.49312        35.92807        -1.05773
C         62.42911        37.21557        -0.46136
C         61.18003        37.84854        -0.16629
C         62.44993        39.97574         0.28340
C         61.19052        39.19233         0.52880
C         62.39513        41.39219         0.19186
C         61.16811        42.10810         0.16818
C         62.40603        44.25463        -0.17039
C         61.16313        43.51682        -0.07630
C         62.40937        45.67643        -0.28222
C         61.16994        46.38836        -0.42003
C         62.44952        48.53154        -0.80420
C         61.15631        47.79750        -0.56057
C         62.36154        50.00671        -0.49436
C         61.15328        50.69331        -0.61025
C         62.30143        52.88218        -0.25459
C         61.09155        52.13816        -0.56072
C         62.29521        54.33010        -0.31201
C         61.02188        55.05307        -0.45522
C         62.39876        57.12572        -1.17935
C         61.08551        56.49912        -0.92771
C         62.41151        58.47895        -1.64334
C         61.21346        59.15290        -1.95625
C         62.41732        61.43443        -1.69093
C         61.21645        60.63557        -2.16850
C         62.26369        62.83170        -1.20234
C         60.90835        63.43541        -1.03223
C         62.03256        65.61718        -0.51079
C         60.85788        64.90479        -0.82315
C         62.00360        67.03750        -0.21353
C         64.93875        35.99398        -1.07376
C         63.69880        35.35690        -1.39418
C         64.90076        37.21648        -0.34571
C         63.67331        37.87225        -0.13460
C         64.94004        40.00714         0.50472
C         63.65685        39.26814         0.22035
C         64.93397        41.37454        -0.15330
C         63.63544        42.10557        -0.16635
C         64.86821        44.26506         0.12674
C         63.64008        43.57188        -0.13477
C         64.83630        45.71231         0.20894
C         63.64080        46.39977        -0.12967
C         64.79571        48.52948         0.16054
C         63.64713        47.82460        -0.19871
C         64.70185        49.99266         0.37687
C         63.65287        50.76029        -0.41063
C         64.63126        52.92209         0.55350
C         63.48233        52.19346         0.01770
C         64.69409        54.43166         0.24562
C         63.48961        55.06097        -0.32417
C         64.85724        57.05548        -0.80489
C         63.56624        56.42695        -0.78266
C         65.02829        58.46053        -1.34928
C         63.72056        59.19947        -1.66966
C         64.84955        61.39480        -0.85427
C         63.70723        60.69400        -1.50008
C         64.68823        62.79101        -0.38560
C         63.36583        63.48377        -0.43370
C         64.50833        65.65772        -0.19003
C         63.31810        64.95954        -0.37972
C         64.46591        67.14319        -0.21237
C         63.13467        67.75232        -0.00947
C         67.30912        34.09638        -3.21234
C         66.16865        34.53860        -2.63924
C         67.44548        36.02361        -1.10372
C         66.17938        35.48649        -1.55700
C         67.45174        37.17057        -0.24614
C         66.16716        37.77192         0.26378
C         67.42211        39.93658         0.34422
C         66.22614        39.27310         0.22065
C         67.42829        41.40695         0.40686
C         66.24083        42.16362        -0.16546
C         67.22580        44.23671         1.03134
C         66.05892        43.56967         0.35908
C         67.22967        45.74132         0.87620
C         66.02411        46.43606         0.51478
C         67.20448        48.59600         0.83240
C         65.99717        47.85720         0.53867
C         67.21111        50.00805         0.87945
C         65.92047        50.71958         0.85591
C         67.22689        52.94112         0.72753
C         65.92072        52.21356         0.85248
C         67.20307        54.32473         0.20755
C         66.02956        55.03475         0.02591
C         67.28873        57.16654        -0.39460
C         66.03250        56.41048        -0.43428
C         67.26482        58.53149        -0.31379
C         65.91939        59.22059        -0.33844
C         67.15754        61.44985        -0.00974
C         65.99394        60.72455        -0.50549
C         67.11978        62.86819         0.11812
C         65.88818        63.59889        -0.12028
C         66.94073        65.77691         0.52719
C         65.77364        64.98029        -0.01892
C         67.10074        67.24155         0.02131
C         65.73922        67.94983        -0.07963
C         66.68727        69.94463         1.03022
C         65.67432        69.35714         0.35909
C         68.47909        31.95247        -1.83605
C         69.24600        33.09959        -2.08397
C         68.66507        34.39891        -2.65622
C         69.88906        35.88027        -0.94930
C         68.66340        35.46841        -1.56687
C         69.85561        36.97178        -0.00870
C         68.65218        37.75939         0.17875
C         69.77641        39.90134         1.03147
C         68.67049        39.18391         0.55506
C         69.88632        41.40478         0.79885
C         68.55305        42.10652         0.70555
C         69.69453        44.27955         1.33134
C         68.57232        43.62085         0.57785
C         69.57162        45.72922         1.73521
C         68.39212        46.44870         1.13677
C         69.65326        48.58769         1.18924
C         68.42557        47.88014         1.05097
C         69.67836        50.00767         1.02186
C         68.44319        50.73538         0.87241
C         69.71699        52.83922         0.62284
C         68.48180        52.14642         0.68666
C         69.75079        54.24869         0.34635
C         68.51722        54.91884        -0.11317
C         69.80601        57.11414        -0.00843
C         68.56661        56.41905        -0.38260
C         69.78970        58.59675         0.02550
C         68.49448        59.33521        -0.16404
C         69.52286        61.46939         0.67052
C         68.38079        60.76878         0.23531
C         69.50174        62.89231         0.76418
C         68.29533        63.57147         0.46349
C         69.47876        65.80388         0.92188
C         68.27076        65.04145         0.40830
C         69.26961        67.21068         1.35295
C         68.10233        67.92384         0.95980
C         68.89010        69.88393         2.23386
C         67.90348        69.23836         1.40350
C         68.72562        71.21953         2.69479
C         70.46988        30.73449        -1.17013
C         69.08831        30.78143        -1.37634
C         71.25121        31.87047        -1.39468
C         70.62125        33.04227        -1.82611
C         72.30573        35.61288        -0.44546
C         71.16619        35.24456        -1.14775
C         72.21324        36.55328         0.59125
C         70.99705        37.18568         0.80409
C         71.81561        40.02546         2.44195
C         70.85791        39.30481         1.76197
C         71.80787        41.44829         2.41717
C         70.87228        42.13674         1.69163
C         71.97819        44.35692         2.15501
C         70.81931        43.59543         1.73584
C         72.03521        45.72154         2.00316
C         70.87839        46.47721         1.64980
C         72.10378        48.62253         1.48617
C         70.88391        47.86901         1.44643
C         72.11982        49.97428         1.28371
C         70.91566        50.71436         1.04740
C         72.15597        52.87612         0.83166
C         70.94297        52.12937         0.83617
C         72.16213        54.23841         0.64946
C         70.95967        54.96468         0.39313
C         72.17723        57.19060         0.57970
C         70.96548        56.42381         0.28650
C         72.15939        58.51973         0.82465
C         70.87540        59.25943         0.81604
C         71.91968        61.53033         1.47307
C         70.73571        60.72971         1.11783
C         71.85830        62.87810         1.56050
C         70.65863        63.62803         1.24530
C         71.58011        65.73218         2.21841
C         70.59920        65.01323         1.46399
C         71.41093        67.05161         2.54574
C         70.24624        67.81265         2.17138
C         71.03006        69.82642         3.43199
C         70.06904        69.17302         2.61402
C         70.84237        71.12650         3.85906
C         69.67874        71.82864         3.48731
O         44.85262        51.08955         3.16589
O         69.25508        65.57295        -0.51204
O         56.99545        46.00212         1.29738
O         39.28637        51.06876         2.92256
O         48.06552        56.92127        -1.56835
O         60.90397        56.15819         0.51109
O         62.65357        62.59412        -2.58116
O         68.66175        55.45045        -1.47691
O         41.02171        52.01686        -0.23482
O         66.56188        52.76546         2.04022
O         63.97954        60.06553        -2.81784
O         55.40159        41.58592        -1.36284
O         60.05066        62.63130        -0.14603
O         64.24725        41.46501        -1.42976
O         70.87406        37.92983         1.98511
O         51.05172        54.69123         0.89700
O         44.64758        54.59045        -0.86517
O         63.74327        62.81192         0.80620
O         58.75946        59.79684        -3.73885
O         70.41142        59.69076         2.14499
O         51.50382        50.04303        -1.58309
O         56.91585        56.35276        -3.45565
O         65.14759        67.73511        -1.40789
O         52.63797        56.63031        -2.78754
O         50.13163        50.74205         1.86510
O         64.36434        53.91581         1.57578
O         71.40123        34.19108        -2.06054
O         64.86243        50.26922         1.79608
O         69.47473        59.19198        -1.27541
O         60.77518        61.23163        -3.43500
O         64.22953        50.80295        -1.78793
H         63.59502        51.29600        -2.35296
O         56.19198        58.87724        -4.27262
H         57.10706        59.11156        -4.56782
O         61.23320        38.88306         1.98264
H         60.45935        38.30921         2.17262
O         54.82434        53.76439        -3.33050
H         54.83968        54.62504        -3.80435
O         67.66217        67.26979        -1.29443
H         66.91353        67.29980        -1.93375
O         57.51189        52.45265        -3.04138
H         56.66593        52.79009        -3.42470
O         69.28265        45.70038         3.19142
H         69.30649        46.62830         3.50932
O         54.52323        61.03000        -4.29422
H         54.93791        60.16650        -4.55634
O         67.12557        43.90703         2.45039
H         66.42117        44.46068         2.84663
O         64.95133        40.23066         1.96425
H         64.02040        40.30654         2.26803
O         49.44828        45.41652        -0.62887
H         49.42333        46.25428        -1.13895
O         65.75536        58.30620        -2.58038
H         65.49851        59.05459        -3.16967
O         52.09389        59.34528         0.93881
H         52.90221        59.89840         0.99006
O         59.16079        54.28532         0.84076
H         59.49739        55.10597         1.27269
O         52.72908        45.86442         2.25750
H         52.86721        46.81491         2.45988
O         62.68976        48.46107        -2.26402
H         63.47420        49.03319        -2.44030
O         69.47111        34.83374        -3.77056
H         70.41521        34.82875        -3.49033
O         53.37421        43.49425        -1.51542
H         54.04185        42.87038        -1.89406
O         57.53314        40.16778         2.14194
H         58.38753        40.61632         2.32402
O         68.78403        43.92539        -0.83128
H         68.05694        43.48053        -1.34046
O         57.38880        44.28472        -1.93000
H         57.30009        43.36558        -2.26215
O         66.65427        65.91358         1.95452
H         66.35643        65.04417         2.29708
O         66.08540        37.42806         1.69726
H         65.64150        38.18069         2.15193
O         70.43286        41.52903        -0.56841
H         70.19701        42.43335        -0.88854
O         66.60700        42.36878        -1.57670
H         65.76304        42.27117        -2.08896
O         46.60330        55.33004         2.14411
H         47.49374        55.67265         2.37047
O         48.44072        49.04691         3.27239
H         49.21708        49.65264         3.18748
O         65.28425        59.04074         0.96125
H         65.81000        59.51912         1.63615
O         49.58071        52.77515        -1.85229
H         49.77916        51.86878        -2.17208
H         36.79947        50.37649         2.84668
H         35.12888        51.03029         1.09490
H         38.19930        53.24889        -0.98157
H         35.85359        52.44680        -0.83530
H         39.69012        48.69553         3.72433
H         39.28448        54.82738         0.35576
H         41.78119        47.37742         3.55888
H         41.37204        56.08411         0.21548
H         45.33512        45.01388         2.65356
H         43.26556        46.28675         2.91781
H         45.11246        58.39337         0.04352
H         43.02250        57.18736         0.46102
H         47.14787        44.17580         3.00652
H         47.00942        59.43122         0.37507
H         49.21803        42.91446         2.64869
H         49.14716        60.49503        -0.03656
H         52.59524        40.40680         1.24097
H         50.52309        41.66055         1.64518
H         52.52970        62.41307        -1.91340
H         50.76315        61.43007        -0.58956
H         54.04492        39.23969         0.24340
H         54.00061        63.33074        -2.94041
H         56.15443        38.15430         0.68817
H         56.01321        64.52101        -2.34430
H         59.88527        36.20308        -0.73375
H         57.79615        37.31531        -0.12687
H         59.47191        66.59140        -0.81669
H         57.54563        65.41629        -1.60244
H         61.56696        35.38723        -1.29443
H         61.03157        67.54083        -0.11892
H         63.69812        34.37113        -1.87749
H         63.06800        68.82656         0.21053
H         67.27274        33.45557        -4.10485
H         65.20620        34.25073        -3.08350
H         66.57724        71.00019         1.31040
H         64.78520        69.94324         0.08767
H         67.39408        31.97177        -2.01431
H         67.83058        71.79372         2.42297
H         70.94209        29.80536        -0.82293
H         68.47666        29.88859        -1.18901
H         72.33590        31.85569        -1.22785
H         73.24946        35.08992        -0.64457
H         73.06595        36.75347         1.25118
H         72.55002        39.49281         3.05882
H         72.54404        41.97911         3.03601
H         72.89419        43.82297         2.44207
H         72.99770        46.22872         2.15919
H         73.05380        48.10283         1.66717
H         73.08422        50.49773         1.31204
H         73.11564        52.36628         0.98698
H         73.12550        54.76385         0.67042
H         73.13918        56.66237         0.62392
H         73.08984        59.04650         1.07974
H         72.85070        61.00452         1.72549
H         72.76311        63.42957         1.85025
H         72.47613        65.21177         2.58307
H         72.19333        67.53451         3.14558
H         71.94472        69.30096         3.73622
H         71.59891        71.61424         4.48907
H         69.53077        72.86241         3.82884
