         429
 CSIRO Nanostructure Databank - Neutral Graphene Oxide Data Set
C          1.21439         3.80245        -2.33495
C          0.06652         4.53779        -2.58480
C          1.23204         6.64356        -2.13070
C          0.06817         5.93872        -2.48578
C          1.25831         8.08477        -1.96375
C          0.09528         8.87864        -2.14499
C          1.27022        10.96650        -1.62538
C          0.11129        10.26057        -1.99973
C          1.24632        12.35726        -1.34157
C          0.04400        13.02646        -1.03970
C          1.16238        15.14296        -0.53551
C          0.01095        14.33160        -0.54327
C          1.15030        16.51903        -0.07776
C          0.02595        17.11656         0.52710
C          1.22468        19.22980         0.86737
C          0.06355        18.44048         0.95828
C          1.24938        20.61012         1.32938
C          0.08243        21.24637         1.80943
C          1.29639        23.32953         2.10913
C          0.09151        22.59496         2.12120
C          1.31331        24.78130         2.26075
C          0.12206        25.51643         2.27536
C          1.26278        27.67562         2.26032
C          0.09552        26.92140         2.20923
C          1.27702        29.11859         2.11412
C          0.06714        29.85849         2.11979
C          1.18798        31.92457         1.47644
C          0.02725        31.22183         1.83311
C          1.19288        33.35203         1.17144
C          0.01938        34.19888         1.44165
C          0.93679        35.91166        -0.08786
C         -0.10183        35.42585         0.90054
C          0.98092        37.40549        -0.31328
C          3.60402         3.71312        -1.77541
C          2.42612         4.45423        -1.97516
C          3.62553         6.57587        -1.57370
C          2.43028         5.89944        -1.86618
C          3.67448         7.99595        -1.54935
C          2.48344         8.73293        -1.65630
C          3.81646        10.88575        -1.50887
C          2.50170        10.18087        -1.23062
C          3.83799        12.37223        -1.35481
C          2.52373        13.11364        -1.18070
C          3.34331        15.50551        -1.50407
C          2.36033        14.60872        -1.13279
C          3.42436        16.83574        -0.96901
C          2.33196        17.31247        -0.19602
C          3.65190        19.34610         0.28094
C          2.41100        18.64402         0.31349
C          3.63341        20.83013         0.50719
C          2.46582        21.33860         1.31931
C          3.82331        23.28645         2.16855
C          2.50140        22.65436         1.80459
C          3.79939        24.81186         2.10886
C          2.56657        25.47633         2.25515
C          3.83612        27.71078         2.19771
C          2.52792        26.93987         2.43434
C          3.75212        29.12477         1.80438
C          2.49689        29.81503         1.85489
C          3.61328        31.88254         1.11617
C          2.44037        31.21133         1.47386
C          3.54719        33.15123         0.31710
C          2.31788        33.94716         0.65218
C          3.43252        35.86542        -0.59730
C          2.32062        35.43457         0.38715
C          3.41636        37.36965        -0.73339
C          2.12334        38.03722        -0.66578
C          5.99093         3.62005        -1.19575
C          4.82997         4.33128        -1.40097
C          6.10918         6.47931        -1.59355
C          4.83092         5.81806        -1.08260
C          6.13388         7.96363        -1.58677
C          4.96467         8.68682        -1.49303
C          6.28560        10.82155        -1.41653
C          4.99077        10.15485        -1.49908
C          6.34558        12.24609        -1.37216
C          5.16518        13.02919        -1.57161
C          6.54697        15.07840        -1.50334
C          5.34344        14.38483        -1.83843
C          6.59060        16.52378        -1.34429
C          4.60659        17.60245        -1.03803
C          6.16561        19.36899        -0.06292
C          4.82639        18.76728        -0.26525
C          6.19034        20.68430         0.48696
C          4.97548        21.40805         0.86761
C          6.30013        23.30962         1.68798
C          5.01402        22.63757         1.47743
C          6.30693        24.82652         1.91609
C          5.01566        25.54196         1.97895
C          6.24131        27.66251         1.55621
C          5.04475        26.94668         1.87075
C          6.19977        29.07815         1.38136
C          4.94434        29.77238         1.46468
C          6.14891        31.99459         1.06101
C          4.89980        31.23404         1.32732
C          6.07623        33.38238         0.53815
C          4.82324        33.97405         0.27939
C          5.95519        36.06004        -0.30066
C          4.76827        35.30743        -0.15799
C          5.88564        37.43386        -0.79973
C          4.57682        38.05700        -0.92486
C          8.48735         3.53872        -0.65874
C          7.21218         4.34351        -0.68918
C          8.69471         6.33824        -1.39353
C          7.35539         5.66984        -1.45084
C          8.72549         7.84271        -1.54386
C          7.44301         8.64519        -1.67294
C          8.75366        10.74005        -1.23400
C          7.49278        10.09659        -1.39667
C          8.83428        12.16090        -1.15267
C          7.60244        12.89973        -1.22188
C          8.84432        14.92809        -0.48243
C          7.63467        14.30850        -1.10408
C          8.77007        16.44285        -0.32946
C          7.53382        17.19598        -0.58968
C          8.61699        19.24032         0.24561
C          7.41598        18.61911        -0.17291
C          8.66263        20.63218         0.53011
C          7.44437        21.34613         0.69824
C          8.72530        23.40963         1.17820
C          7.51070        22.69209         1.15297
C          8.73262        24.84476         1.35413
C          7.53133        25.55400         1.55456
C          8.70267        27.69935         1.22785
C          7.49490        26.97253         1.42638
C          8.65309        29.12365         1.04454
C          7.40621        29.77463         1.05732
C          8.62756        31.97479         0.50019
C          7.35990        31.20524         0.70842
C          8.60180        33.47280         0.76072
C          7.27222        34.10379         0.36642
C          8.45809        36.21492        -0.19289
C          7.20481        35.45084        -0.03105
C          8.36932        37.60100        -0.78415
C          7.02831        38.11932        -1.11541
C         10.89976         3.28960        -0.33549
C          9.72156         4.12303        -0.46985
C         11.00686         6.42975        -0.36319
C          9.83726         5.60742        -0.75797
C         11.22167         7.78068        -1.01466
C          9.93332         8.56650        -1.12473
C         11.22078        10.65005        -0.91110
C          9.95766         9.94747        -1.08239
C         11.26719        12.06102        -1.15669
C         10.09381        12.84963        -1.16305
C         11.30690        15.04127        -0.49062
C         10.10811        14.40496        -1.19119
C         11.14046        16.27141         0.32664
C          9.89644        17.05739         0.12112
C         11.16317        19.20957         0.44892
C          9.85542        18.46173         0.65139
C         11.14511        20.59793         0.47419
C          9.91308        21.32564         0.66739
C         11.19313        23.45680         0.93399
C          9.94504        22.72033         0.89775
C         11.20218        24.87675         1.09952
C          9.96023        25.57564         1.21644
C         11.19380        27.70995         1.17157
C          9.95017        26.99409         1.19571
C         11.14928        29.18908         1.22382
C          9.88347        29.88628         0.92653
C         11.11875        32.01397         0.48801
C          9.90038        31.25908         0.70107
C         11.06883        33.40449         0.13454
C          9.81889        34.14921         0.15482
C         10.95440        36.24177        -0.54650
C          9.73560        35.46411        -0.24208
C         10.87584        37.53488        -1.27145
C          9.54269        38.20781        -1.52724
C         13.42108         3.32584         0.20604
C         12.08993         3.72292         0.29355
C         13.46738         6.32468        -0.04769
C         12.05833         5.92513         0.32258
C         13.54818         7.81456        -0.00919
C         12.24466         8.54316        -0.16069
C         13.65511        10.63603        -0.39109
C         12.39772         9.97741        -0.56688
C         13.73943        12.01243        -0.78250
C         12.59541        12.57840        -1.30954
C         13.78675        15.02483        -0.14751
C         12.56423        14.68401        -0.85983
C         13.72732        16.34065         0.47044
C         12.41174        17.00689         0.65644
C         13.62850        19.13970         0.63477
C         12.40896        18.48983         0.58388
C         13.69771        20.57001         0.37822
C         12.39059        21.35965         0.34094
C         13.63579        23.49491         0.79763
C         12.41147        22.78903         0.71661
C         13.66013        24.88287         0.97500
C         12.43531        25.60213         1.09512
C         13.69902        27.80727         1.21305
C         12.41577        27.03870         1.17463
C         13.69902        29.22201         0.79694
C         12.45231        29.96977         0.98072
C         13.54707        31.96391        -0.00541
C         12.35926        31.34192         0.48000
C         13.45871        33.30750        -0.47965
C         12.26199        34.02516        -0.32926
C         13.41351        36.09793        -1.27523
C         12.25990        35.48247        -0.58993
C         13.31660        37.47706        -1.71205
C         12.01197        38.11767        -1.74113
C         15.70140         3.46968         1.11272
C         14.53714         4.14379         0.68972
C         15.77233         6.29290         0.89861
C         14.57725         5.57507         0.63347
C         15.88246         7.72176         0.67823
C         14.72484         8.48081         0.25883
C         16.06754        10.55699         0.17650
C         14.80644         9.91533         0.05248
C         16.22169        11.97597        -0.23911
C         15.03485        12.82899        -0.78270
C         16.05159        14.77958         0.74218
C         14.90250        14.21317        -0.07760
C         16.13584        16.28900         0.70658
C         14.90421        17.00521         0.76162
C         16.18069        19.16173         0.80177
C         14.88171        18.45827         1.15817
C         16.20401        20.56940         0.64554
C         14.91031        21.30758         0.89679
C         16.14797        23.45235         0.15327
C         14.87576        22.74592         0.44004
C         16.22973        24.86308         0.64249
C         14.98059        25.56861         1.07177
C         16.22119        27.78737         0.62183
C         15.01865        27.06867         1.12492
C         16.15240        29.16045         0.42218
C         14.88026        29.89179         0.44150
C         16.02054        32.05830        -0.22626
C         14.80050        31.27808         0.06423
C         15.94570        33.33144        -0.96340
C         14.58699        33.88322        -1.30312
C         15.78721        36.04206        -1.86547
C         14.58354        35.38732        -1.41989
C         15.72270        37.46514        -2.21574
C         14.43471        38.11396        -2.20682
C         18.03627         3.45483         1.92473
C         16.87415         4.16057         1.47148
C         18.14758         6.27728         1.60135
C         16.92885         5.58196         1.34152
C         18.23672         7.68854         1.39765
C         17.09371         8.41244         0.91571
C         18.41586        10.52119         1.02587
C         17.18477         9.83590         0.66751
C         18.47566        11.91753         1.02444
C         17.43882        12.68203         0.33280
C         18.56930        14.81499         0.84513
C         17.38581        14.13515         0.52991
C         18.59577        16.25640         0.82018
C         17.35882        16.97229         0.76217
C         18.62752        19.11602         0.63169
C         17.37630        18.42801         0.72823
C         18.64118        20.53808         0.49074
C         17.40791        21.24944         0.44114
C         18.69075        23.43933         0.30419
C         17.44649        22.67476        -0.07602
C         18.68623        24.87071         0.27881
C         17.47088        25.62140         0.37724
C         18.69018        27.70682         0.15118
C         17.46401        27.03536         0.40611
C         18.72292        29.17748         0.10758
C         17.41477        29.92287         0.25749
C         18.45115        31.92190        -1.01334
C         17.35254        31.36419        -0.16744
C         18.40296        33.36451        -1.34544
C         17.09134        34.00010        -1.38003
C         18.18100        36.02525        -2.53850
C         16.99091        35.35149        -1.89355
C         18.21198        37.52244        -2.22730
C         16.87379        38.16623        -2.47856
C         19.19681         4.12715         2.21399
C         20.49883         6.23477         2.30722
C         19.28622         5.54209         2.04707
C         20.58880         7.59461         2.11810
C         19.47510         8.35964         1.65158
C         20.80210        10.48524         1.65344
C         19.56214         9.76914         1.46937
C         20.86231        11.83995         1.68397
C         19.61113        12.67023         1.67699
C         20.96774        14.79097         1.21780
C         19.77215        14.08795         1.14988
C         21.01600        16.18007         0.99367
C         19.84325        16.93819         0.83646
C         21.05740        19.11297         0.58183
C         19.86154        18.39290         0.68448
C         21.06796        20.50854         0.45960
C         19.88466        21.25151         0.42653
C         21.11249        23.45039         0.45243
C         19.89351        22.72168         0.38959
C         21.13055        24.82498         0.31527
C         19.92998        25.56623         0.20834
C         21.09803        27.71487        -0.28993
C         19.91710        27.00031         0.02719
C         21.06395        29.08102        -0.62139
C         19.90698        29.83058        -0.48764
C         20.95643        32.01538        -1.33185
C         19.77888        31.18310        -1.07847
C         20.83400        33.31857        -1.69210
C         19.56279        34.00659        -1.77842
C         20.63608        36.11444        -2.57703
C         19.52538        35.38892        -2.24305
C         20.53036        37.48072        -3.05533
C         19.37663        38.17217        -2.93843
O          4.76355         5.98435         0.32977
O         18.77990        31.11352        -2.19217
O         12.69336        13.81784        -1.95242
O         11.88350         4.82984         1.15325
O         18.31217        29.78360         1.41113
O          5.73562        31.89074         2.45294
O         16.95504        32.20829         0.94054
O         15.22008        23.12672        -0.94104
O          6.49319        23.88342         3.03455
O          3.33660        27.43805         3.54822
O          3.30345        12.69655         0.03064
O         13.15937        21.04182        -0.88043
O         11.88547        29.77408         2.33584
O          7.84854        31.52154        -0.64878
O         14.52897        27.57058         2.40888
O          5.56474        17.22956        -1.97712
O         17.38478        12.20233        -1.09479
O          4.31300        15.11719        -2.42584
O          8.23105         8.26985        -2.86345
O         15.85849        24.94578         2.07499
O          9.70817         5.72252        -2.26370
O          6.69418         5.77906        -2.74484
O          8.57255        37.42776         0.65415
O         11.61859        16.33796         1.72858
O         11.88155        36.27011         0.59892
O          3.36501        32.70117        -1.10660
H          2.49222        32.25237        -1.15415
O          7.00043         4.69199         0.70919
H          6.10146         5.16340         0.78501
O         11.65887         8.56074         1.19073
H         12.21315         9.14359         1.75163
O          3.17252        35.31888        -1.92399
H          3.31755        34.33646        -1.86982
O         17.97214        35.89647        -3.97886
H         18.14478        34.96394        -4.22564
O          8.73355        33.60832         2.20141
H          8.83561        34.55984         2.41497
O         14.30365        33.40025        -2.68039
H         14.96727        33.81433        -3.27344
O          2.41673        10.12137         0.24005
H          2.63812        11.03058         0.56679
O         14.76147        21.38070         2.34323
H         14.83826        20.46127         2.70269
O         10.07471        14.82568        -2.56707
H         10.92028        14.53692        -2.97808
O          3.36485        21.37208        -0.84945
H          2.50948        20.99730        -1.15114
O         15.71200        14.42185         2.15552
H         16.41723        14.79784         2.72648
O          3.99292        22.95127         3.58490
H          4.87760        23.30601         3.85070
O         17.59378        22.51698        -1.52390
H         16.68059        22.41832        -1.88633
O         13.61425         5.92231        -1.46196
H         13.04674         6.53233        -2.00916
O          9.71746        18.31208         2.11211
H         10.36936        17.61556         2.37879
O         11.71779         7.61537        -2.37077
H         11.04877         7.04635        -2.83013
O          2.57809        36.10587         1.64732
H          3.40946        35.74793         2.02358
O          8.94005        14.39060         0.86870
H          8.21738        14.77289         1.40852
O         19.23290        12.86349         3.10030
H         19.18112        11.97301         3.50905
O         14.79785        18.53826         2.62910
H         14.05434        17.96437         2.91592
O         18.45794        37.65599        -0.79458
H         18.48321        38.61082        -0.57730
O         15.31566        13.13696        -2.16411
H         16.29346        13.06429        -2.28158
O          9.23100        38.12167        -2.92691
H          9.98973        38.47176        -3.43723
O          0.59318        35.29414        -1.35355
H          1.36741        35.43555        -1.95632
H          1.19941         2.70615        -2.41864
H         -0.86313         4.02173        -2.86287
H         -0.86874         6.47642        -2.68574
H         -0.85116         8.40099        -2.43256
H         -0.81393        10.81539        -2.21250
H         -0.90149        12.46844        -1.08311
H         -0.94989        14.73718        -0.19966
H         -0.90322        16.54541         0.65598
H         -0.84845        18.86008         1.40244
H         -0.86648        20.69817         1.86988
H         -0.85233        23.07695         2.40763
H         -0.84226        24.99202         2.26130
H         -0.88173        27.41297         2.11005
H         -0.87618        29.35169         2.36345
H         -0.94071        31.74080         1.86233
H         -0.75994        33.81111         2.11418
H         -0.99195        36.04184         1.09947
H          0.03672        37.97024        -0.26463
H          3.57061         2.61818        -1.89532
H          2.11010        39.12159        -0.86112
H          6.01639         2.52885        -1.34889
H          4.54623        39.14511        -1.09209
H          8.39804         2.44519        -0.55548
H          6.96057        39.11043        -1.58828
H         10.83927         2.26101        -0.72587
H          9.62830        39.29882        -1.24320
H         13.67538         2.36773        -0.27270
H         11.94787        39.10304        -2.23180
H         15.69667         2.37071         1.16365
H         14.36613        39.15612        -2.55337
H         17.98294         2.36215         2.03518
H         16.82577        39.25289        -2.65549
H         20.08436         3.57925         2.56248
H         21.37253         5.66871         2.66114
H         21.54125         8.09578         2.33483
H         21.73622         9.91457         1.75221
H         21.83353        12.33104         1.83753
H         21.90534        14.27601         1.46966
H         21.99517        16.67632         1.02834
H         22.02198        18.58808         0.60499
H         22.04279        21.01024         0.39688
H         22.06862        22.92143         0.55979
H         22.09836        25.34426         0.31540
H         22.05036        27.17924        -0.39316
H         21.97647        29.54486        -1.02209
H         21.95595        31.58703        -1.17253
H         21.75161        33.89073        -1.88365
H         21.64669        35.69232        -2.48565
H         21.42716        37.95042        -3.48571
H         19.30911        39.22638        -3.24777
