         661
 CSIRO Nanostructure Databank - Neutral Graphene Oxide Data Set
C          6.29992        31.62349         1.86700
C          6.13676        32.96197         2.10890
C          8.44759        27.40311         0.54928
C          8.48115        28.79919         0.58359
C          7.38825        29.55450         1.12333
C          8.67631        31.62746         0.94792
C          7.47855        30.92158         1.37224
C          9.03826        32.83428         1.48999
C          7.25451        33.88414         2.17846
C          8.64870        35.86345         1.55023
C          7.36503        35.18516         1.77275
C          8.67544        37.24876         1.65660
C         10.90221        23.08405         0.15483
C         10.81681        24.46804         0.08323
C          9.60179        25.22951         0.20146
C         10.73934        27.37109        -0.38271
C          9.56409        26.62344         0.12223
C         10.74078        28.85111        -0.36811
C          9.64090        29.52297         0.06293
C         10.95310        31.69213        -0.12093
C          9.54161        31.02244        -0.14400
C         10.79976        33.21093        -0.12331
C          9.92729        33.76720         0.83882
C         10.88831        35.98229         0.48298
C          9.81434        35.18280         0.99940
C         10.94304        37.38750         0.69765
C          9.81731        38.03940         1.30709
C         10.96330        40.19895         1.08242
C          9.82904        39.43129         1.45956
C         10.97074        41.60765         1.23817
C         13.48424        18.79425         0.24880
C         13.42074        20.23455         0.04579
C         12.19966        20.93989         0.14329
C         13.38178        23.04973        -0.08557
C         12.15493        22.35657         0.08017
C         13.39191        24.51177        -0.00410
C         12.08079        25.24134         0.08969
C         13.34602        27.45930        -0.19864
C         12.06178        26.65912        -0.39291
C         13.28475        28.96080        -0.69078
C         11.86462        29.51684        -1.14455
C         13.21236        31.63226        -1.42968
C         11.97210        31.03727        -1.03601
C         13.33573        33.09406        -1.51267
C         11.59937        34.10425        -0.83203
C         13.14342        36.05809        -0.65101
C         11.89387        35.39156        -0.34010
C         13.16999        37.44822        -0.39710
C         12.06615        38.12632         0.23683
C         13.26565        40.30410         0.23050
C         12.09775        39.53846         0.48984
C         13.30624        41.65669         0.55585
C         12.12721        42.37057         0.96648
C         13.29514        44.58209         0.75235
C         12.13116        43.79661         0.98990
C         13.31717        45.96746         0.77329
C         15.93686        14.65592         1.51580
C         15.89515        16.09420         1.06664
C         14.73186        16.71146         0.74786
C         15.94894        18.82952         0.29827
C         14.67523        18.12282         0.40508
C         15.91352        20.16535        -0.41497
C         14.62206        20.93492        -0.20286
C         15.81762        23.10651        -0.48833
C         14.61325        22.35616        -0.28256
C         15.79246        24.52039        -0.60939
C         14.57952        25.25943        -0.45982
C         15.71086        27.30293        -1.11829
C         14.54420        26.65117        -0.67817
C         15.67759        28.71310        -1.58490
C         14.33764        29.40300        -1.75424
C         15.66474        31.78234        -1.84582
C         14.40326        30.92593        -1.66621
C         15.64605        32.99544        -0.83335
C         14.40066        33.83865        -1.08132
C         15.62400        35.95337        -0.79577
C         14.38225        35.29990        -0.92069
C         15.65830        37.43061        -0.89208
C         14.36212        38.21741        -0.77574
C         15.73883        40.34362        -0.30040
C         14.37992        39.73712        -0.62090
C         15.77797        41.66400         0.03963
C         14.58566        42.38120         0.50965
C         15.76851        44.64377         0.10873
C         14.59750        43.87464         0.60679
C         15.79749        45.99557         0.29448
C         14.62266        46.71622         0.92627
C         15.64645        48.84355         0.01601
C         14.56027        48.17490         0.54622
C         15.73360        50.27998         0.03617
C         18.18445        10.37253         0.53980
C         18.14907        11.74523         0.38514
C         17.04231        12.54656         0.83604
C         18.31064        14.64829         0.51854
C         17.11523        13.91201         0.92461
C         18.37001        16.06400         0.57665
C         17.20458        16.83453         1.18390
C         18.43732        19.00060         0.71625
C         17.12903        18.24460         0.64504
C         18.41305        20.34826         0.04508
C         17.08854        21.05543         0.03429
C         18.37643        23.14288        -0.44862
C         17.11328        22.36989        -0.74930
C         18.33342        24.64357        -0.43041
C         17.00252        25.24067        -0.82948
C         18.18473        27.34531        -1.44062
C         16.93889        26.59849        -1.13044
C         18.12594        28.78235        -1.04080
C         16.94363        29.50387        -1.60004
C         18.19123        31.68218        -1.12515
C         16.97307        30.99751        -1.64992
C         18.14956        33.13917        -0.86586
C         16.92258        33.81410        -0.88592
C         18.14484        35.91046        -0.78654
C         16.89002        35.22969        -0.79002
C         18.18631        37.35692        -0.47144
C         16.91969        38.14907        -0.52491
C         18.20679        40.28696        -0.48902
C         16.99571        39.63762        -0.54217
C         18.31254        41.74240        -0.10370
C         16.99534        42.43735        -0.30552
C         18.19959        44.67240        -0.82804
C         16.92889        43.91078        -0.46644
C         18.30329        46.00124        -0.08052
C         16.97480        46.75379        -0.09992
C         17.99053        48.81419        -0.94597
C         16.84352        48.09360        -0.36655
C         18.14344        50.29729        -0.69285
C         16.93522        50.98660        -0.13152
C         18.25346        53.09158        -0.00902
C         17.01875        52.37411         0.08256
C         18.27499        54.54154         0.18080
C         20.58806         6.26045         1.62201
C         20.60547         7.51900         1.09147
C         19.39308         8.25864         0.87134
C         20.66609        10.28260         0.29591
C         19.40177         9.59803         0.48317
C         20.65737        11.64988        -0.20397
C         19.30319        12.47092        -0.16469
C         20.59243        14.62100        -0.50416
C         19.38798        13.91697        -0.03519
C         20.70759        16.07185        -0.28599
C         19.55680        16.77070         0.17232
C         20.81897        18.87571        -0.01413
C         19.63444        18.19761         0.26845
C         20.89191        20.37272         0.20387
C         19.57343        21.03369        -0.13006
C         20.87535        23.22956        -0.12407
C         19.56074        22.48243        -0.30086
C         20.82820        24.53162        -0.90126
C         19.53517        25.20783        -1.17194
C         20.77752        27.52997        -1.34524
C         19.50490        26.67373        -1.50010
C         20.61224        28.72449        -0.33191
C         19.30492        29.46671        -0.45369
C         20.56562        31.71751        -0.09754
C         19.30360        30.96494        -0.41258
C         20.66350        33.11656        -0.59458
C         19.39821        33.81028        -0.82016
C         20.62057        35.92499        -1.23814
C         19.36601        35.21817        -0.87266
C         20.66275        37.41561        -1.13662
C         19.49649        38.09329        -0.50695
C         20.73269        40.32796        -0.89545
C         19.50447        39.58513        -0.50767
C         20.75047        41.72833        -0.83577
C         19.52452        42.49214        -0.63432
C         20.72266        44.64451        -0.86315
C         19.50529        43.88085        -0.71426
C         20.71739        46.04599        -0.96114
C         19.43980        46.74523        -0.75319
C         20.98876        49.08419        -1.27312
C         19.15323        47.97024        -1.25910
C         20.81760        50.35497        -0.74559
C         19.48147        50.91876        -0.26441
C         20.75129        53.20248        -0.23194
C         19.45152        52.42231        -0.24209
C         20.66074        54.34806         0.78091
C         19.43302        55.19286         0.50544
C         20.66821        57.29031         0.95451
C         19.50098        56.62107         0.69886
C         20.62760        58.79846         1.15540
C         23.10441         3.45243         2.00182
C         21.90358         4.08813         1.84994
C         23.11173         6.26689         1.76363
C         21.82308         5.56748         2.12385
C         23.13113         7.56327         1.29446
C         21.90652         8.14325         0.63658
C         23.11906        10.35053         0.65207
C         21.88679         9.65352         0.60207
C         23.14378        11.81169         0.44713
C         21.87926        12.47741        -0.04200
C         23.20373        14.56567        -0.71794
C         21.89146        13.84009        -0.64827
C         23.20382        16.02932        -0.63504
C         21.96145        16.73734        -0.45027
C         23.22638        18.86892        -0.60315
C         21.99968        18.16127        -0.35272
C         23.23017        20.28116        -0.75430
C         22.08142        21.04152        -0.45612
C         23.31946        23.14760        -0.86020
C         22.09785        22.43825        -0.55452
C         23.39167        24.66102        -0.63026
C         22.05703        25.35235        -0.87941
C         23.22369        27.51417        -0.93209
C         21.99377        26.69722        -0.99476
C         23.19954        28.72562        -0.02887
C         21.84885        29.45460         0.09723
C         23.13001        31.74432         0.26887
C         21.83165        30.97326         0.26843
C         23.13248        33.19587        -0.22339
C         21.88518        33.77284        -0.67937
C         23.14208        35.95638        -1.22111
C         21.90109        35.10588        -1.42272
C         23.11701        37.39423        -1.59223
C         21.92348        38.17948        -1.24564
C         23.19975        40.29651        -1.28934
C         21.93861        39.57375        -1.16324
C         23.19532        41.74548        -1.15871
C         22.00021        42.43289        -0.97738
C         23.20349        44.61830        -1.33877
C         22.03437        43.91358        -0.64147
C         23.22446        46.08787        -0.96915
C         21.98544        46.79158        -1.00829
C         23.25663        48.86167        -0.47001
C         22.07772        48.22211        -0.94387
C         23.23385        50.26055        -0.18068
C         22.00668        50.98934        -0.24605
C         23.17377        53.02584         0.41823
C         21.98670        52.36868         0.05266
C         23.14278        54.45613         0.69605
C         21.95694        55.12565         0.83897
C         23.11373        57.23353         1.32123
C         21.93742        56.57531         1.05185
C         23.15849        58.73545         1.27969
C         21.87220        59.32222         1.89102
C         23.14818        61.43890         2.14337
C         21.94820        60.82757         1.93937
C         24.31587         4.17702         2.20626
C         25.56761         6.30481         2.00048
C         24.34980         5.57439         2.04311
C         25.58292         7.66998         1.68368
C         24.34908         8.32146         1.29666
C         25.52693        10.54305         1.38949
C         24.33001         9.69902         0.99491
C         25.60001        11.87479         0.67876
C         24.45082        12.47142         0.22169
C         25.72250        14.61375        -0.18982
C         24.49868        13.81890        -0.38366
C         25.69927        16.00827        -0.40946
C         24.44431        16.71620        -0.58360
C         25.68610        18.88300        -0.53016
C         24.45436        18.14575        -0.63285
C         25.72645        20.26729        -0.78675
C         24.46790        20.94415        -1.31469
C         25.75646        23.14432        -1.44446
C         24.47172        22.45003        -1.15781
C         25.81296        24.65843        -1.50782
C         24.44298        25.36250        -1.54116
C         25.76198        27.47251        -0.66839
C         24.52642        26.84511        -1.18484
C         25.69537        28.83397        -0.28638
C         24.43064        29.55052        -0.19889
C         25.59616        31.44196         0.63039
C         24.38144        30.90042         0.19221
C         25.54982        33.59498         0.26031
C         24.28640        34.00583        -0.28969
C         25.61891        36.02669        -1.01685
C         24.32670        35.33927        -0.89048
C         25.68691        37.40271        -1.34105
C         24.44348        38.15145        -1.64982
C         25.68011        40.32725        -1.47847
C         24.39650        39.60667        -1.43707
C         25.69199        41.76112        -1.14969
C         24.47021        42.46232        -1.12012
C         25.69937        44.55478        -0.88167
C         24.49383        43.88197        -1.06106
C         25.75355        46.06083        -0.98450
C         24.43620        46.74590        -0.72548
C         25.66117        48.77486         0.08668
C         24.46124        48.11940        -0.35935
C         25.63910        50.15315         0.40404
C         24.42673        50.91279         0.24571
C         25.60376        52.97611         0.96405
C         24.39602        52.30289         0.52735
C         25.63084        54.35329         1.14168
C         24.45280        55.20904         0.74383
C         25.64367        57.19955         1.68497
C         24.34323        56.42162         1.66238
C         25.61039        58.59541         1.91286
C         24.41462        59.34266         1.88127
C         24.37170        60.69597         2.21384
C         26.80698         8.40413         1.62164
C         28.04156        10.48954         1.27018
C         26.83306         9.77709         1.36544
C         28.09419        11.87049         0.95360
C         26.86563        12.56188         0.58943
C         28.20524        14.57883         0.07111
C         26.90333        13.90057         0.18303
C         28.19994        16.08103        -0.10489
C         26.90219        16.78443        -0.20963
C         28.06010        18.96054         0.33134
C         26.88665        18.16660        -0.19023
C         28.12745        20.33863        -0.28858
C         26.98132        20.96731        -0.74748
C         28.30192        23.18989        -1.09683
C         27.03819        22.38241        -1.22798
C         28.26785        24.67260        -0.91321
C         27.05195        25.36689        -1.04235
C         28.17828        27.42733        -0.19340
C         26.98790        26.75628        -0.65634
C         28.12004        28.78470         0.18996
C         26.91231        29.50610         0.05949
C         28.05994        31.76847         0.60770
C         26.84659        30.88654         0.40967
C         28.00261        33.08457        -0.25544
C         26.77833        34.00729        -0.20185
C         28.09408        35.95600        -0.99818
C         26.83796        35.30495        -0.84219
C         28.12797        37.36101        -1.07478
C         26.92461        38.07877        -1.24721
C         28.20393        40.28725        -1.00725
C         26.97808        39.55451        -1.40765
C         28.18443        41.69608        -0.89908
C         26.93022        42.42681        -0.96185
C         28.15432        44.52797        -0.51400
C         26.91950        43.83166        -0.77318
C         28.11352        45.89785        -0.14063
C         26.89200        46.66295        -0.19626
C         28.03452        48.57610         0.91426
C         26.86088        47.97980         0.22416
C         28.00851        50.03552         1.27182
C         26.80117        50.83151         0.92960
C         27.94855        52.81005         1.95015
C         26.78088        52.18180         1.22071
C         27.98553        54.30699         1.82883
C         26.85005        55.03550         1.53960
C         26.83121        56.47697         1.65686
C         29.31957        12.56405         0.97754
C         30.59208        14.67255         0.70819
C         29.41511        13.93131         0.61844
C         30.62222        16.09697         0.52517
C         29.41482        16.81969         0.27361
C         30.59947        18.92505         0.49895
C         29.39188        18.22444         0.32299
C         30.61168        20.40062         0.45691
C         29.37018        21.09686        -0.04493
C         30.79436        23.17512        -0.43050
C         29.53265        22.44406        -0.66925
C         30.76083        24.65801        -0.37504
C         29.47666        25.36186        -0.52070
C         30.64914        27.47440         0.15597
C         29.43400        26.72871        -0.18268
C         30.59643        28.77561         0.57716
C         29.29131        29.50481         0.82820
C         30.57022        31.77178         0.61243
C         29.34623        30.95053         0.23210
C         30.57080        33.22889         0.27854
C         29.25610        33.98996         0.00774
C         30.66563        35.88290        -0.95220
C         29.35918        35.09523        -1.05405
C         30.67046        37.38379        -1.00346
C         29.38115        38.08728        -0.62932
C         30.62743        40.28829        -0.70515
C         29.41688        39.58681        -0.85066
C         30.65688        41.70582        -0.59751
C         29.40723        42.39403        -0.65361
C         30.62517        44.52204        -0.40344
C         29.38913        43.81394        -0.49767
C         30.50296        45.92746        -0.31050
C         29.33528        46.56550         0.11475
C         30.65328        48.61008         1.24797
C         29.36353        47.85565         0.85308
C         30.52651        50.06092         1.39376
C         29.30435        50.75803         1.43439
C         29.25495        52.13995         1.62302
C         31.82196        16.82146         0.69594
C         33.07766        18.95663         0.72759
C         31.83879        18.22790         0.63336
C         33.15511        20.33689         0.56091
C         31.92410        21.09342         0.33953
C         33.27211        23.12764        -0.20678
C         31.97599        22.42734         0.07105
C         33.16168        24.56720         0.26188
C         31.91927        25.31877        -0.07765
C         33.19386        27.42279         0.50850
C         31.98155        26.82306        -0.17475
C         33.13672        28.81265         0.93240
C         31.82783        29.53264         0.91231
C         33.13575        31.75630         0.53748
C         31.86402        31.03811         0.80283
C         33.09841        33.15332         0.17007
C         31.87592        33.86533        -0.03794
C         33.10757        35.93161        -0.42441
C         31.89306        35.19769        -0.48087
C         33.10281        37.38700        -0.52886
C         31.92699        38.09121        -0.69679
C         33.06258        40.26974        -0.13573
C         31.94707        39.58494        -0.88593
C         33.13090        41.66965        -0.12016
C         31.90918        42.43342        -0.37125
C         33.13987        44.55368         0.09777
C         31.90069        43.84730        -0.28907
C         33.30012        45.86980         0.59835
C         32.34694        46.92363         0.46090
C         32.03512        48.01350         1.23116
C         34.39799        21.04615         0.60207
C         35.69353        23.14885         0.45166
C         34.48925        22.41953         0.34784
C         35.72729        24.57028         0.41776
C         34.43636        25.29272         0.52882
C         35.66125        27.47945         0.60807
C         34.41683        26.76948         0.54421
C         35.67582        28.89657         0.61377
C         34.43299        29.63079         0.90593
C         35.59280        31.75283         0.32347
C         34.35771        31.07886         0.60550
C         35.59202        33.14005         0.01304
C         34.33270        33.84595        -0.03445
C         35.57743        36.00721        -0.39094
C         34.31417        35.25101        -0.18515
C         35.62139        37.42480         0.15723
C         34.29635        38.10948        -0.13396
C         36.02543        40.49591         0.12447
C         34.13150        39.42109         0.26390
C         35.70869        41.83292        -0.19114
C         34.40174        42.39691        -0.00643
C         34.33665        43.79014         0.10471
C         36.90155        25.31907         0.40697
C         38.10593        27.47722         0.40442
C         36.90829        26.75698         0.46869
C         38.13777        28.90949         0.47152
C         36.87588        29.62048         0.52313
C         38.04812        31.78969         0.41736
C         36.84000        31.05820         0.43121
C         38.04566        33.15951         0.08314
C         36.82598        33.80598        -0.22817
C         38.16840        35.97494        -0.75516
C         36.84013        35.23732        -0.61002
C         38.05282        37.45871        -0.49004
C         36.90409        38.17510        -0.27166
C         36.97484        39.62091        -0.39560
C         39.32430        29.63484         0.53007
C         40.55350        31.85544         0.61744
C         39.29351        31.09144         0.91052
C         40.53726        33.17439         0.35216
C         39.30222        33.91758         0.10787
C         39.32538        35.26238        -0.10609
O         27.72230        49.01668         2.28483
O         20.03916        48.56743        -2.15784
O         19.79280        38.78250         0.73839
O         20.13845        24.36733        -2.19242
O         12.20315        33.71999        -2.03233
O         11.34357        26.81024        -1.62630
O         12.85649        25.01859         1.31948
O         21.03739        28.64909         1.03491
O         30.51005        22.55991        -1.77084
O         33.59290        24.75553         1.64235
O         31.73026        30.36563         2.11727
O         23.75281        37.71552        -2.87400
O         17.42598        37.63084         0.75777
O         19.50826        31.53056         0.91140
O         33.86508        29.13292         2.15711
O         16.46793        28.88505        -2.82810
O         27.91149        22.60172        -2.38382
O         14.90266        43.07264         1.80363
O         30.79440        36.61584        -2.24204
O         25.89450        23.85604        -2.71916
O         19.86881        11.88289        -1.37925
O         24.01095        13.94591        -1.77262
O         17.80924        49.82198        -2.01788
O         21.04349        28.22835        -2.52168
O         14.95131        37.88382        -2.08852
O         35.13896        39.94503         1.08336
O         23.65075        28.38477         1.27416
O         21.09020        14.09916        -1.81194
O         31.54905        46.75349        -0.68822
O         26.46140        40.01354        -2.70369
O         28.42573        15.18148        -1.25029
O         25.52494        32.66327         1.28971
O         18.24795        28.92105         0.41141
O         29.88820        47.75921         2.21312
O         36.00873        35.69231        -1.75617
O         30.49938        32.75737         1.68055
O         23.89361        27.71170        -2.21318
O         20.33142        36.76686        -2.42779
O          8.42950        33.27510         2.66901
O         22.39023        31.49785         1.50997
O         29.70550        21.08679         1.41103
O         22.26677        12.56720         1.37809
O         18.04666        31.41306        -2.56909
O         16.66689        43.01409        -1.62500
O         18.77380        26.99626        -2.72257
O         29.34103        37.96298         0.83908
H         29.15967        37.02106         1.06791
O         33.43619        23.15888        -1.65843
H         32.59710        22.86697        -2.07972
O         23.18073        59.10848        -0.13608
H         23.89571        58.59236        -0.56661
O         15.58433        32.38193         0.47825
H         15.70154        33.07813         1.15789
O         29.40983        34.49727        -2.37648
H         29.74336        35.20171        -2.98307
O         16.83241        21.41665         1.42225
H         17.32223        20.78069         1.99645
O         26.06534        46.34475        -2.39664
H         25.38965        45.88213        -2.93928
O         11.49101        31.39077         1.21163
H         12.34686        30.89504         1.10389
O         21.07568        20.60678         1.64526
H         20.30431        20.17415         2.09682
O         27.73316        52.53060         3.39015
H         27.64610        51.55678         3.48777
O         22.04519         7.75895        -0.78032
H         21.28063         8.13829        -1.26446
O         23.92987        25.24720        -2.87255
H         23.65231        26.14893        -3.16681
O         29.51447        30.67926        -1.17806
H         28.94161        31.29272        -1.70583
O         21.77171        58.84909         3.26156
H         22.42460        59.34515         3.79871
O         15.64625        32.29800        -3.18561
H         16.57220        32.26747        -3.52445
O         29.08484        29.58671         2.26035
H         29.95485        29.85046         2.65338
O         39.19358        31.07788         2.38922
H         38.35801        30.61882         2.62283
O         35.72214        37.25696         1.59931
H         35.66601        38.15986         1.98910
O         25.30212        10.87923         2.80242
H         25.24757        10.03622         3.30070
O         18.63719        19.30775         2.15936
H         18.46523        18.45026         2.63666
O         11.46256        29.27502        -2.50913
H         12.24488        29.34148        -3.10866
O         22.30423        44.00563         0.78949
H         21.51499        43.67204         1.26678
O         13.52511        27.52468         1.24452
H         13.47247        26.59406         1.59711
O         28.12054        32.14814         1.98764
H         28.23847        31.31691         2.50946
O         18.52768        25.08375         0.94859
H         17.85783        24.64364         1.51302
O         32.21657        27.11903        -1.60058
H         31.44622        26.78004        -2.10605
O         21.07793        23.52072         1.28513
H         21.11355        22.64563         1.74550
O         23.00354        44.54899        -2.77666
H         22.13223        44.95260        -2.97982
O         38.52145        35.92111        -2.18012
H         37.67474        36.03637        -2.67228
O         13.61520        29.78370         0.45750
H         13.87168        29.19388         1.20888
O         13.92777        29.04225        -3.09512
H         14.73569        29.10521        -3.65902
O         18.50134        41.72170         1.35105
H         19.03770        40.93093         1.57995
O         18.60160        45.70330         1.29893
H         18.59287        46.53742         1.81242
O         27.89579        32.60933        -1.62044
H         28.12484        33.34857        -2.23924
O         20.93244        53.79940        -1.54631
H         20.89038        53.08378        -2.21440
O         24.14083        55.90337         3.00718
H         24.02254        56.66517         3.61171
O         17.17481        22.09634        -2.18651
H         17.49822        22.90277        -2.64306
O         19.50101        50.53860         1.17050
H         20.05889        51.19409         1.64694
O         24.45468        20.69784        -2.76595
H         25.03691        21.36496        -3.19204
O         32.28615        39.77310        -2.31318
H         32.30197        40.73933        -2.48518
O         16.00088        19.79638        -1.81074
H         16.23059        20.60190        -2.33299
O         27.75484        19.18292         1.75418
H         28.40587        19.85749         2.07254
O         21.72217         5.67165         3.59840
H         22.48279         5.17658         3.97192
O         18.08520        45.03893        -2.22361
H         17.68948        44.26594        -2.68907
O         23.77689        24.84912         0.74721
H         23.00065        24.62260         1.30988
O          8.92358        31.24850        -1.42812
H          9.38549        30.68626        -2.08790
O         14.71296        13.97660         1.24682
H         14.60610        13.90496         0.27625
O         14.87107        46.71994         2.38419
H         14.93425        45.78226         2.67070
O         24.72058        55.72148        -0.59707
H         24.69827        54.96329        -1.21800
O         21.95167        34.72767        -2.82735
H         21.67250        35.51813        -3.34487
O         20.48310        59.45690        -0.10676
H         21.35383        59.39674        -0.56598
O         14.06303        40.27262        -1.94537
H         14.47457        39.66586        -2.60415
O         17.49490        16.92201         2.64045
H         16.66113        17.18685         3.08585
O         28.96885        34.73128         1.21654
H         28.92925        34.06306         1.94588
O         20.47410        53.71257         2.07998
H         20.50207        54.41331         2.76495
H          5.38958        31.00182         1.90797
H          5.11647        33.35114         2.25272
H          7.55482        26.88157         0.92674
H          6.47556        29.01193         1.41432
H          6.45512        35.75166         1.52177
H          7.78129        37.77213         2.02722
H          9.97529        22.49481         0.22640
H          8.68094        24.69146         0.47447
H          8.95553        39.94034         1.89305
H         10.05766        42.11082         1.58996
H         12.53732        18.24547         0.36893
H         11.26682        20.37892         0.30519
H         11.18547        44.31764         1.20459
H         12.38048        46.52510         0.92892
H         16.06381        14.65807         2.63695
H         13.79512        16.13175         0.75737
H         13.70307        48.75429         0.92302
H         14.84837        50.83835         0.37942
H         17.27971         9.86049         0.90242
H         16.12784        12.03960         1.17988
H         16.11061        52.92501         0.37061
H         17.33309        55.09986         0.06838
H         19.62083         5.79595         1.87407
H         18.43492         7.78030         1.12662
H         18.56229        57.19250         0.62389
H         19.72045        59.05353         1.76317
H         23.15637         2.35524         1.93955
H         20.97898         3.51395         1.69305
H         23.19443        62.53009         2.27493
H         21.01688        61.41163         1.91179
H         25.25420         3.62637         2.36339
H         26.51495         5.78552         2.20957
H         26.55367        59.11720         2.14289
H         25.29217        61.20849         2.53034
H         27.75614         7.85972         1.74355
H         28.98853         9.95073         1.43047
H         28.90057        54.82707         2.15157
H         27.78886        57.00322         1.79474
H         30.22605        12.03341         1.30571
H         31.51863        14.17150         1.02678
H         31.45564        50.64964         1.43875
H         30.19220        52.69773         1.77415
H         32.76253        16.27662         0.86387
H         34.00365        18.38210         0.88016
H         34.23766        46.07924         1.13730
H         32.64851        48.24695         2.11498
H         35.30456        20.49046         0.88851
H         36.63567        22.60351         0.62000
H         36.48897        42.49389        -0.59956
H         35.28222        44.33406         0.25082
H         37.86963        24.80034         0.33300
H         39.05929        26.93310         0.33124
H         38.97360        38.02724        -0.70251
H         37.77475        40.02859        -1.03278
H         40.28834        29.10349         0.53995
H         41.51028        31.32816         0.74965
H         41.48356        33.72357         0.23084
H         40.28528        35.80005        -0.06335
