         228
 CSIRO Nanostructure Databank - Neutral Graphene Oxide Data Set
C        -10.95003         0.52641         0.89609
C         -9.77622         1.33982         0.61255
C         -8.74112         0.74804        -0.27669
C         -7.44763         1.46825        -0.45551
C         -6.28155         0.80144        -0.97776
C         -5.02806         1.45132        -0.95162
C         -3.78014         0.76579        -1.06135
C         -2.58644         1.46801        -0.85292
C         -1.30073         0.75269        -1.06259
C          0.00051         1.49313        -0.74960
C          1.21482         0.71495        -0.51653
C          2.36115         1.38769         0.00983
C          3.57335         0.59505         0.22878
C          4.79256         1.27177         0.67375
C          5.97916         0.44428         0.75364
C          7.86211         1.64466         0.60105
C          8.90867         0.82412         0.00192
C         10.15284         1.56626        -0.25070
C         11.36797         0.75328        -0.20298
C         -9.63638         2.59401         1.11585
C         -8.34612         3.35783         1.01083
C         -7.39499         2.78872        -0.01809
C         -6.28938         3.64455        -0.38902
C         -4.98294         2.91619        -0.84689
C         -3.73764         3.60401        -0.50836
C         -2.56203         2.84718        -0.49152
C         -1.33437         3.49563         0.09452
C         -0.02994         2.85633        -0.22768
C          1.13704         3.50186         0.15518
C          2.37330         2.75879         0.26377
C          3.61413         3.44225         0.60949
C          4.76508         2.61719         0.94234
C          6.80238         3.90030         1.13964
C          7.75037         2.97614         0.38652
C          8.71610         3.58741        -0.60098
C         10.08089         2.91508        -0.46603
C         -8.50276         4.85593         0.88541
C         -7.40008         5.64525         0.60157
C         -6.17811         5.00607         0.15612
C         -4.96828         5.69684         0.10710
C         -3.73373         4.99881        -0.15869
C         -2.49680         5.68439         0.00928
C         -1.28309         4.99672        -0.02219
C         -0.03253         5.67091         0.15885
C          1.13296         4.93110         0.37269
C          2.42745         5.60244         0.65828
C          3.70035         4.82605         0.55198
C          4.96414         5.54461         0.19766
C          6.32441         5.02081         0.24437
C          7.42656         5.74869        -0.31641
C          8.64798         5.09649        -0.54748
C         -7.39028         7.08157         0.71302
C         -6.21448         7.80667         0.57991
C         -4.94977         7.12565         0.37626
C         -3.75818         7.83912         0.38422
C         -2.43684         7.11956         0.47148
C         -1.31007         7.89606        -0.23137
C          0.08332         7.16334        -0.17853
C          1.08646         7.86580         0.83591
C          2.42664         7.08892         0.84892
C          3.71678         7.83409         0.60658
C          4.88487         7.09743         0.02081
C          6.13685         7.85360        -0.22768
C          7.29580         7.17787        -0.52141
C         -6.18681         9.24398         0.71410
C         -5.01481         9.94247         0.66254
C         -3.74835         9.27212         0.49903
C         -2.53893         9.97568         0.47498
C         -1.27949         9.32899         0.28688
C         -0.08864        10.01557         0.41975
C          1.18432         9.33324         0.46644
C          2.36858         9.99510         0.31647
C          3.68319         9.32979         0.39951
C          4.86392         9.96550        -0.22192
C          6.02304         9.29023        -0.41287
C        -11.01267        -0.80386         0.62791
C         -9.92316        -1.53553        -0.00155
C         -8.83236        -0.71613        -0.59643
C         -7.59575        -1.42250        -1.08188
C         -6.32788        -0.64461        -1.33170
C         -5.02295        -1.42296        -1.52030
C         -3.69147        -0.66427        -1.58935
C         -2.52151        -1.43961        -0.96195
C         -1.26897        -0.70839        -0.92785
C         -0.03343        -1.36110        -0.89956
C          1.20451        -0.64857        -0.82027
C          2.47377        -1.39434        -0.94761
C          3.68464        -0.77026        -0.34482
C          5.02399        -1.33296        -0.76492
C          6.18024        -0.64269        -0.04939
C          7.51089        -1.25035        -0.29973
C          8.80709        -0.52825        -0.19918
C         10.03107        -1.32566        -0.63526
C         11.30692        -0.59338        -0.27365
C         -9.92886        -2.89093        -0.10432
C         -8.79254        -3.68909        -0.69828
C         -7.49854        -2.87050        -0.69293
C         -6.21667        -3.61021        -0.78272
C         -5.00115        -2.91726        -1.34092
C         -3.67076        -3.67705        -1.25740
C         -2.54329        -2.79751        -0.72747
C         -1.31066        -3.46851        -0.25278
C          0.01110        -2.78104        -0.49933
C          1.23773        -3.60140        -0.65022
C          2.51240        -2.89945        -0.91363
C          3.77401        -3.56230        -0.46884
C          5.02484        -2.82279        -0.41894
C          6.21478        -3.44787        -0.12117
C          7.51370        -2.76635        -0.33961
C          8.78949        -3.47573        -0.05090
C          9.96355        -2.76593        -0.13263
C         -8.59346        -4.99920         0.02861
C         -7.44281        -5.71972        -0.10669
C         -6.29348        -5.14138        -0.93616
C         -4.95773        -5.76501        -0.54355
C         -3.80848        -5.03376        -0.58131
C         -2.55191        -5.71232        -0.16467
C         -1.27567        -4.95474        -0.06832
C          0.01708        -5.68853        -0.18385
C          1.23709        -4.95750        -0.43240
C          2.53115        -5.73380        -0.60137
C          3.73638        -4.90899        -0.20192
C          4.90827        -5.58352         0.35856
C          6.23236        -4.81625         0.39798
C          7.50782        -5.57255         0.41351
C          8.71162        -4.88738         0.25933
C         -7.35199        -7.08925         0.32185
C         -6.17657        -7.81844         0.25330
C         -4.92927        -7.16887        -0.10174
C         -3.74465        -7.87883        -0.02073
C         -2.45886        -7.20143        -0.42044
C         -1.23546        -7.76335         0.28159
C          0.04664        -7.05920         0.02133
C          1.29333        -7.77797         0.18330
C          2.50431        -7.10633         0.03959
C          3.75008        -7.77088         0.30808
C          4.95322        -7.05474         0.38426
C          6.21243        -7.70087         0.60852
C          7.42352        -6.98420         0.61281
C         -6.14346        -9.23249         0.54820
C         -4.97976        -9.94204         0.53957
C         -3.70655        -9.28587         0.32668
C         -2.50569        -9.96211         0.47221
C         -1.22618        -9.23568         0.59843
C          0.07939        -9.90225         0.62919
C          1.27393        -9.20251         0.50532
C          2.53743        -9.87740         0.63177
C          3.74436        -9.19452         0.56335
C          5.01924        -9.84111         0.76922
C          6.18943        -9.13610         0.77754
O         -5.86664         3.58503        -1.78188
O         -1.38336        -8.16160         1.65771
O          8.22470         3.24928        -1.94793
H          8.91594         3.50401        -2.59485
O          5.10385        -1.11690        -2.18231
H          5.95471        -1.50618        -2.49196
O          7.51701         4.50328         2.22631
H          7.55612         3.84471         2.95123
O         -9.31968         0.27917        -1.54364
O         -3.35188        -0.50222        -2.98783
H         -3.86457        -1.17064        -3.49753
O         -6.66347        -3.07571         0.50600
O         -1.66506         7.98839        -1.61854
H         -0.80925         7.79873        -2.10042
O          5.41951        -4.98751         1.60376
O         10.06208        -1.39808        -2.09353
H          9.17547        -1.73390        -2.37267
O         -7.24699        -1.01198        -2.42037
O         -2.04630        -5.32525         1.14389
O          4.04032         8.71654         1.71047
O          4.61151         6.22612        -1.09045
O         -9.07723        -4.02419        -2.07795
H         -8.30081        -4.56969        -2.39735
O         -2.23904        -7.41536        -1.84050
H         -2.99955        -7.03026        -2.32761
O          7.51862        -2.00494        -1.59874
O          2.68964        -5.98695        -2.03911
H          1.89609        -6.47333        -2.34798
O          0.51840         7.82068         2.13785
H          0.96686         7.09299         2.63262
O          3.42879        -0.64007         1.08267
O         -3.24627        -4.01795        -2.61125
H         -3.88279        -3.58924        -3.23205
O         -1.50475         3.26827         1.56146
H         -0.77113         3.73727         2.01648
O         -2.10003         7.06664         1.88907
H         -2.86023         6.67909         2.37101
O          7.03508         0.97422         1.51641
O          2.47504         6.24188         2.04141
O         -7.64635         3.14837         2.30391
H         -8.20931         3.53888         3.00599
O          0.68782         7.22309        -1.42276
O          5.73646         3.17626         1.76753
O         -0.60197        -2.84268         0.85615
O         -0.50852         1.34044        -2.13468
O         -5.17631        -2.33711        -2.66463
O         -6.64875        -5.41831        -2.26855
O          2.61348        -2.15401        -2.17555
H         12.23419        -1.18500        -0.22694
H         12.33455         1.26242        -0.06791
H         10.99112         3.49439        -0.68606
H          9.49070         5.68277        -0.94861
H          8.18903         7.73970        -0.83337
H          6.90689         9.81747        -0.80188
H          4.80177        11.03568        -0.46818
H          2.36000        11.06353         0.04942
H         -0.10338        11.10626         0.58074
H         -2.55363        11.06353         0.65223
H         -5.02034        11.03848         0.75633
H         -7.14056         9.77328         0.85584
H         -8.33276         7.60300         0.93643
H         -9.43653         5.32343         1.23347
H        -10.42456         3.01258         1.76248
H        -11.79075         1.01664         1.40973
H        -11.90613        -1.37568         0.92013
H        -10.78661        -3.45166         0.30114
H         -9.44407        -5.42788         0.58368
H         -8.27695        -7.59099         0.64880
H         -7.09506        -9.73765         0.77088
H         -4.98404       -11.01868         0.76460
H         -2.51394       -11.04501         0.67127
H          0.10879       -10.99578         0.75594
H          2.53610       -10.95822         0.84001
H          5.03190       -10.92896         0.93253
H          7.14387        -9.65842         0.93985
H          8.36232        -7.54924         0.72130
H          9.65650        -5.44711         0.33698
H         10.91665        -3.29066         0.04026
