         600
 CSIRO Nanostructure Databank - Neutral Graphene Oxide Data Set
C         23.07748        27.31501         1.00370
C         23.14658        28.66773         1.10398
C         23.23061        31.59569         1.39718
C         23.24241        32.99604         1.43158
C         23.14989        35.92257         1.01481
C         23.16062        37.30077         0.96541
C         23.20036        40.23128         0.95449
C         23.22596        41.62045         0.95642
C         23.25586        44.53392         0.64166
C         23.26472        45.90930         0.58512
C         25.38566        24.44651         0.19278
C         24.27139        25.08871         0.63390
C         25.61897        27.23573         1.05184
C         24.29200        26.49601         1.08842
C         25.60807        28.70867         0.91145
C         24.39814        29.39824         1.08041
C         25.57502        31.54340         0.71546
C         24.38804        30.84798         1.04712
C         25.52034        33.01797         0.41263
C         24.35325        33.73695         1.03400
C         25.58654        35.88567         0.93238
C         24.36294        35.18256         1.00349
C         25.60422        37.29985         0.89314
C         24.37671        38.02629         0.90925
C         25.63487        40.17068         0.89280
C         24.39072        39.47494         0.90887
C         25.65988        41.59920         0.94263
C         24.43695        42.33465         0.93895
C         25.66988        44.49285         0.96011
C         24.45723        43.79793         0.85870
C         25.70619        45.91299         0.85136
C         24.48305        46.62953         0.69413
C         25.69252        48.73653         0.74926
C         24.50437        48.05183         0.65566
C         27.88120        23.11256        -0.97448
C         27.73573        24.52630        -0.65691
C         26.66594        25.09763         0.05426
C         28.07474        27.26838         0.30166
C         26.83074        26.46624         0.60749
C         28.02238        28.74627         0.28486
C         26.81736        29.42169         0.59148
C         27.99962        31.57407         0.22861
C         26.78856        30.85256         0.49252
C         28.01374        33.02034         0.37423
C         26.84050        33.70852         0.60721
C         28.10539        35.87274         0.68854
C         26.87369        35.12214         1.12084
C         28.09392        37.29439         0.73482
C         26.86157        38.01499         0.84607
C         28.10762        40.14423         0.82402
C         26.86551        39.43428         0.84692
C         28.11923        41.58573         0.90891
C         26.91479        42.28889         0.99037
C         28.18677        44.47479         0.95658
C         26.92280        43.75503         1.35426
C         28.19743        45.88545         0.88364
C         26.94575        46.63568         0.87992
C         28.19102        48.79158         0.82323
C         26.93872        48.04678         0.83533
C         28.28146        50.15840         1.02382
C         30.40095        23.01385        -1.11578
C         29.06540        22.43842        -1.15897
C         30.55129        24.37362        -1.44149
C         28.78458        25.41084        -1.08915
C         30.34182        27.34249        -0.79740
C         29.08497        26.65806        -0.58029
C         30.37828        28.74320        -0.51364
C         29.18352        29.44933        -0.11157
C         30.43642        31.59952        -0.22249
C         29.19820        30.88063        -0.03641
C         30.45074        33.04030        -0.08614
C         29.27969        33.72920         0.26409
C         30.51816        35.88098         0.20419
C         29.28814        35.16696         0.39568
C         30.55664        37.28950         0.41873
C         29.33054        38.00901         0.66336
C         30.58849        40.14512         0.92546
C         29.31876        39.42002         0.77973
C         30.59887        41.60886         0.78751
C         29.38361        42.30435         0.85641
C         30.63759        44.43009         0.72418
C         29.39148        43.74231         0.83302
C         30.65639        45.85635         0.72186
C         29.42927        46.56886         0.74649
C         30.75136        48.77760         0.78761
C         29.42927        48.03387         0.59812
C         30.74378        50.20649         1.14084
C         29.51967        50.84917         1.16447
C         32.81874        20.23362        -0.28065
C         31.64048        20.90915        -0.50749
C         32.79173        23.08343        -0.53929
C         31.59345        22.33166        -0.70311
C         32.83050        24.49284        -0.70270
C         31.64453        25.18499        -1.08264
C         32.79570        27.35280        -0.98150
C         31.56415        26.63316        -1.03558
C         32.80144        28.75192        -0.85306
C         31.59964        29.46444        -0.63323
C         32.85900        31.62164        -0.75470
C         31.62194        30.90114        -0.48473
C         32.85397        33.07581        -0.70936
C         31.68021        33.75878        -0.32242
C         32.92736        35.89452        -0.34777
C         31.70755        35.18249        -0.15632
C         32.96643        37.30632        -0.12638
C         31.79436        37.97158         0.29753
C         33.07955        40.15241         0.30390
C         31.88149        39.38741         0.67144
C         33.07113        41.56199         0.41556
C         31.84712        42.28501         0.64794
C         33.11090        44.40887         0.59386
C         31.86450        43.70693         0.64832
C         33.13350        45.82984         0.77579
C         31.91946        46.53062         0.82220
C         33.25100        48.67794         1.35551
C         31.92485        47.95566         1.16772
C         33.25400        50.15195         1.26658
C         32.03513        50.87564         1.30445
C         33.32417        52.94269         1.44004
C         32.10699        52.28706         1.38632
C         35.37988        18.83260         0.23084
C         35.30997        20.24947         0.01966
C         34.06642        20.90943        -0.13453
C         35.34251        23.14223        -0.20986
C         34.01699        22.38003        -0.11587
C         35.30729        24.55291        -0.64127
C         34.07000        25.23395        -0.70417
C         35.27625        27.31066        -1.19573
C         34.06053        26.62693        -0.98952
C         35.21283        28.77206        -1.55830
C         34.12379        29.46959        -0.74094
C         35.19955        31.63967        -1.68288
C         34.02243        30.94050        -1.04339
C         35.26659        33.10962        -1.33152
C         34.07361        33.79066        -0.92981
C         35.33867        35.92210        -0.91050
C         34.11653        35.20209        -0.72847
C         35.37300        37.33892        -0.70152
C         34.19642        38.03085        -0.30340
C         35.45484        40.17371        -0.32767
C         34.23666        39.45166        -0.11479
C         35.48605        41.58180        -0.12349
C         34.29240        42.28138         0.21480
C         35.56692        44.40529         0.34371
C         34.31700        43.69778         0.37970
C         35.60569        45.77872         0.64434
C         34.40919        46.51994         0.87093
C         35.71903        48.63733         1.01785
C         34.47304        47.91667         1.09580
C         35.73519        50.06453         1.13709
C         34.50667        50.82008         1.25183
C         35.82708        52.92148         1.46246
C         34.54734        52.23810         1.36944
C         35.90444        54.31429         1.67908
C         37.83006        18.84022         0.13939
C         36.57290        18.16943         0.31843
C         37.80305        20.25199        -0.12524
C         36.56240        20.96297        -0.11716
C         37.77306        23.02528        -0.70740
C         36.57917        22.36203        -0.35612
C         37.72656        24.43585        -1.13814
C         36.49667        25.22105        -0.95927
C         37.76860        27.34782        -1.29805
C         36.50712        26.62192        -1.19921
C         37.75432        28.79104        -1.34055
C         36.52743        29.49896        -1.41326
C         37.72880        31.60766        -1.53394
C         36.51193        30.89967        -1.46721
C         37.68037        33.04728        -1.87708
C         36.45037        33.80843        -1.53070
C         37.73305        35.95336        -1.50528
C         36.52063        35.23076        -1.31951
C         37.77500        37.34813        -1.28875
C         36.59534        38.05813        -0.89462
C         37.85226        40.20153        -0.92330
C         36.63681        39.47180        -0.71411
C         37.89367        41.60644        -0.70564
C         36.71715        42.30728        -0.28323
C         38.00093        44.42310        -0.16658
C         36.76825        43.69440        -0.00878
C         38.08128        45.78571         0.18205
C         36.93749        46.42142         0.92928
C         38.16625        48.60717         0.79715
C         36.92688        47.92529         0.84017
C         38.18796        50.00070         1.04428
C         36.98413        50.74341         1.16869
C         38.28863        52.85190         1.48288
C         37.03263        52.17488         1.36821
C         38.32751        54.23568         1.79431
C         37.12894        54.94964         1.87577
C         40.29897        16.06135         0.58976
C         39.14096        16.75292         0.59909
C         40.28950        18.84865        -0.04412
C         39.06367        18.14847         0.20178
C         40.26827        20.25088        -0.29597
C         39.02487        20.95265        -0.35906
C         40.25508        23.07289        -0.83334
C         39.01124        22.34730        -0.67276
C         40.27244        24.47771        -1.00061
C         39.02718        25.19865        -1.29297
C         40.23297        27.38273        -1.13984
C         38.99352        26.67315        -1.22763
C         40.23293        28.80728        -1.23882
C         38.98547        29.51158        -1.34616
C         40.21842        31.66486        -1.57088
C         38.96931        30.93154        -1.48938
C         40.23754        33.06486        -1.77966
C         38.97127        33.77970        -2.09206
C         40.23662        35.95317        -1.77332
C         38.93749        35.30754        -2.17689
C         40.23196        37.36485        -1.65492
C         39.00887        38.08364        -1.45685
C         40.26961        40.21561        -1.48552
C         39.04072        39.49214        -1.30039
C         40.28841        41.65649        -1.33119
C         39.10993        42.33846        -0.91249
C         40.36736        44.47208        -0.87193
C         39.15851        43.74396        -0.67115
C         40.42469        45.86798        -0.56525
C         39.27866        46.51842        -0.01172
C         40.57746        48.59438         0.18453
C         39.37051        47.90133         0.37651
C         40.74419        49.95253         0.71943
C         39.47577        50.68357         1.20597
C         40.75272        52.82170         1.14310
C         39.51714        52.13597         1.30118
C         40.80526        54.20856         1.42021
C         39.66468        54.82765         2.19626
C         40.81408        57.02405         1.87832
C         39.70887        56.33171         2.22466
C         42.79901        16.15478         0.78278
C         41.57252        16.65308         0.06030
C         42.74727        18.86371        -0.09237
C         41.53934        18.16241         0.00781
C         42.73462        20.27403        -0.34607
C         41.49709        20.95858        -0.47134
C         42.72151        23.07511        -0.82239
C         41.48979        22.36629        -0.71888
C         42.69398        24.49618        -0.83884
C         41.48221        25.21285        -0.90426
C         42.66329        27.41150        -0.86521
C         41.46658        26.67454        -0.95990
C         42.69065        28.81940        -1.07930
C         41.46251        29.52730        -1.25611
C         42.67637        31.67394        -1.49354
C         41.45417        30.96110        -1.42515
C         42.69478        33.08744        -1.57905
C         41.45602        33.78449        -1.70856
C         42.68167        35.94702        -1.65247
C         41.44144        35.23388        -1.72956
C         42.68060        37.35055        -1.76164
C         41.46930        38.07317        -1.71211
C         42.72189        40.20625        -1.83856
C         41.46565        39.50543        -1.71402
C         42.67592        41.67108        -2.01059
C         41.47301        42.39552        -1.56605
C         42.76878        44.52823        -1.49763
C         41.53410        43.79334        -1.34427
C         42.81027        45.92712        -1.23254
C         41.63459        46.59829        -0.76879
C         42.90958        48.72820        -0.66661
C         41.70699        47.97845        -0.43009
C         42.97177        50.13549        -0.38123
C         41.88707        50.76924         0.28666
C         43.05231        52.92068         0.19505
C         41.90751        52.15311         0.56946
C         43.07028        54.32821         0.44483
C         41.95394        54.96207         1.08370
C         43.12097        57.10809         0.97505
C         41.98127        56.37254         1.32002
C         43.94427        16.86524         0.77698
C         45.22021        18.84141        -0.05490
C         44.01698        18.19503         0.18061
C         45.21420        20.19666        -0.66066
C         43.96044        20.98168        -0.54755
C         45.24143        23.05598        -1.07598
C         43.96347        22.34748        -0.80942
C         45.23210        24.56709        -0.95405
C         43.94874        25.22321        -0.60225
C         45.21828        27.43184        -0.74778
C         43.93511        26.73044        -0.57834
C         45.19122        28.84114        -0.95454
C         43.95104        29.50247        -1.14658
C         45.25919        31.70488        -1.37875
C         43.94050        30.91877        -1.52017
C         45.17821        33.15698        -1.19983
C         43.94007        33.82881        -1.44059
C         45.11925        35.99260        -1.16229
C         43.92151        35.23834        -1.46023
C         45.11703        37.37804        -1.30949
C         43.98514        38.04977        -2.03094
C         45.18177        40.26255        -1.70375
C         43.92990        39.54013        -1.81576
C         45.22695        41.66510        -1.89781
C         43.97591        42.41738        -2.13156
C         45.19704        44.55266        -1.86518
C         43.98256        43.86538        -1.82663
C         45.22920        45.96285        -1.70378
C         44.02911        46.65544        -1.38072
C         45.26730        48.81248        -1.43070
C         44.06503        48.07371        -1.16756
C         45.28935        50.23839        -1.30148
C         44.13423        50.89073        -0.73186
C         45.26301        53.07436        -0.92247
C         44.16212        52.28558        -0.44852
C         45.24816        54.49193        -0.72815
C         44.18360        55.11572         0.03928
C         44.20222        56.49177         0.34815
C         47.67778        18.93122         0.15206
C         46.49975        18.30499         0.36484
C         47.84234        20.13889        -0.74916
C         46.52996        20.90828        -0.90957
C         47.68445        23.11836        -0.55435
C         46.53240        22.38586        -0.84431
C         47.66835        24.57249        -0.47946
C         46.47440        25.28716        -0.63381
C         47.66742        27.44690        -0.46662
C         46.43111        26.72297        -0.59982
C         47.64096        28.87954        -0.51053
C         46.43383        29.57526        -0.83459
C         47.60590        31.72948        -0.56076
C         46.44506        30.98642        -0.89946
C         47.57831        33.16485        -0.56769
C         46.34965        33.86260        -0.83798
C         47.52385        35.99812        -0.52309
C         46.33045        35.29533        -0.78218
C         47.51183        37.46018        -0.42453
C         46.23166        38.18883        -0.84853
C         47.57394        40.29097        -1.11681
C         46.34967        39.59670        -1.27282
C         47.62549        41.68552        -1.41902
C         46.43432        42.36011        -1.78049
C         47.69972        44.52809        -1.83347
C         46.45427        43.79675        -2.23671
C         47.67375        45.93157        -1.89493
C         46.46742        46.67827        -1.84054
C         47.66435        48.86738        -1.95862
C         46.46962        48.11890        -1.77559
C         47.66061        50.28848        -2.02083
C         46.43441        50.99482        -1.71157
C         47.15675        53.33518        -2.39023
C         46.31717        52.45045        -1.67030
C         47.13190        54.72227        -2.22875
C         46.21601        55.29527        -1.35746
C         50.23725        20.37473        -0.13073
C         49.00945        21.01158        -0.33189
C         50.11206        23.17389         0.02133
C         48.93493        22.42411        -0.28029
C         50.09028        24.60803        -0.00988
C         48.89651        25.29976        -0.24057
C         50.08075        27.48833         0.02191
C         48.87674        26.74899        -0.25475
C         50.04104        28.91623         0.06784
C         48.83008        29.61248        -0.23877
C         50.00226        31.77501         0.04423
C         48.81220        31.03953        -0.24354
C         49.98778        33.20041         0.00710
C         48.76901        33.88898        -0.29690
C         49.96342        36.05785        -0.10450
C         48.76033        35.32033        -0.32071
C         49.97768        37.48781        -0.24617
C         48.77816        38.19917        -0.49096
C         50.01243        40.31579        -0.64872
C         48.78346        39.59568        -0.73199
C         50.04324        41.72554        -0.89408
C         48.86683        42.41121        -1.29817
C         50.11604        44.55313        -1.29257
C         48.88920        43.82488        -1.51589
C         50.16810        45.94762        -1.50096
C         48.95849        46.63302        -1.98328
C         50.20039        48.81211        -1.73889
C         48.94411        48.12417        -2.08461
C         50.26248        50.18954        -2.29562
C         48.93840        50.94252        -2.28688
C         50.33680        52.90504        -2.82984
C         49.09098        52.20997        -2.82579
C         51.37598        21.09951         0.22077
C         52.49441        23.24830         0.79834
C         51.32867        22.49302         0.33237
C         52.51767        24.64764         0.70710
C         51.40917        25.34713        -0.03571
C         52.43939        27.52677         0.70922
C         51.29512        26.81242         0.29783
C         52.41050        28.95608         0.74129
C         51.21913        29.64891         0.38801
C         52.38517        31.81433         0.67284
C         51.20414        31.08196         0.37088
C         52.37746        33.24129         0.61339
C         51.17817        33.93448         0.28220
C         52.36779        36.09902         0.46784
C         51.17719        35.37068         0.21334
C         52.38532        37.53094         0.31156
C         51.19860        38.21389        -0.09695
C         52.43167        40.35045        -0.11042
C         51.21195        39.62679        -0.28271
C         52.45531        41.76256        -0.32097
C         51.27272        42.44678        -0.71469
C         52.52254        44.58267        -0.74263
C         51.29993        43.85892        -0.90356
C         52.53735        46.00839        -0.88703
C         51.35171        46.68587        -1.23957
C         52.55978        48.88920        -1.07811
C         51.34380        48.13815        -1.36734
C         52.56741        50.32156        -1.28839
C         51.45343        50.99133        -1.83723
C         51.45892        52.35275        -2.23657
C         54.70756        23.28223         1.80762
C         53.59453        22.58080         1.39081
C         54.76587        24.69152         1.69727
C         53.63762        25.38495         1.17445
C         54.74935        27.55414         1.58762
C         53.63442        26.83027         1.13311
C         54.74631        29.00053         1.54601
C         53.58036        29.69244         1.10437
C         54.75673        31.84976         1.37378
C         53.57711        31.11837         1.05450
C         54.76678        33.28119         1.25259
C         53.57689        33.97317         0.88458
C         54.76660        36.11512         1.10277
C         53.57594        35.40103         0.82165
C         54.70627        37.60873         1.28255
C         53.56433        38.27297         0.56024
C         54.83791        40.40662         0.52184
C         53.60790        39.66461         0.32436
C         54.87337        41.77890         0.23442
C         53.68457        42.48934        -0.16760
C         55.01717        44.62331        -0.48736
C         53.70977        43.87728        -0.41225
C         54.88695        46.09773        -0.18702
C         53.73639        46.76286        -0.54830
C         54.92045        48.96261        -0.36660
C         53.70288        48.22409        -0.61423
C         54.89217        50.38639        -0.54266
C         53.76709        51.03623        -0.96455
C         57.12920        24.77407         2.52126
C         55.94520        25.43016         2.09585
C         57.06229        27.57394         2.49300
C         55.92388        26.85055         2.05293
C         56.99607        29.03851         2.60085
C         55.87217        29.74715         1.96650
C         57.13597        31.89638         2.08776
C         55.91462        31.15814         1.83533
C         57.16617        33.30512         1.85077
C         55.96758        34.00784         1.48533
C         57.20950        36.17143         1.53420
C         55.96593        35.43505         1.38878
C         57.24168        37.59010         1.36841
C         56.02700        38.32227         1.11627
C         57.27199        40.47832         1.33180
C         56.03293        39.69912         0.93829
C         57.32683        41.83022         0.68519
C         56.12945        42.51889         0.35262
C         57.34876        44.66570         0.69185
C         56.14520        43.90720         0.19170
C         57.35543        46.13222         0.35111
C         56.03563        46.85223         0.42686
C         57.37227        48.95021         0.05658
C         56.10648        48.29525        -0.00120
C         58.25998        25.48812         2.86634
C         59.46642        27.65094         3.08769
C         58.24672        26.90406         2.85971
C         59.51576        29.00324         3.00653
C         58.28541        29.80459         2.88511
C         59.52074        31.96127         2.60173
C         58.32413        31.23468         2.49733
C         59.55643        33.32451         2.34594
C         58.38823        34.02619         1.98509
C         59.64842        36.16136         1.72202
C         58.41373        35.45611         1.75293
C         59.69432        37.51297         1.48580
C         58.50077        38.27926         1.33252
C         59.77851        40.37136         0.93795
C         58.54853        39.69163         1.15996
C         59.84372        41.68837         0.56380
C         58.61208        42.44700         0.36843
C         59.88314        44.76349         0.50602
C         58.64294        43.98059         0.29874
C         59.81501        46.11237         0.52052
C         58.54616        46.82376         0.37853
C         58.54431        48.25947         0.25130
O         44.77833        31.23449        -2.68403
O         30.24507        48.49002        -0.54811
O         45.20450        23.92995        -2.26740
O         46.56968        37.98836         0.57142
O         57.30988        29.53945         3.95049
O         43.21218        42.08093        -3.33876
O         38.32305        24.65152        -2.46874
O         27.92391        26.59846         1.59959
O         43.94266        25.92356         0.67904
O         58.58683        43.22378        -0.91358
O         38.23271        33.22291        -3.24100
O         25.07133        26.73718         2.31351
O         49.10949        47.31203        -3.31537
O         31.41147        39.65942         2.04541
O         29.53062        24.97000        -2.19613
O         45.76281        20.33755        -2.03162
O         32.44138        48.20849         2.51027
O         34.66636        22.94936         1.07766
O         40.41334        50.03497         2.14044
O         48.00117        52.87224        -3.40415
O         25.26010        33.09675        -1.05755
H         24.40979        32.63397        -1.21901
O         54.39100        37.78724         2.72282
H         54.30342        38.75218         2.88102
O         57.28252        44.61271         2.15613
H         56.56433        45.23961         2.42380
O         55.42039        44.58203        -1.92267
H         55.54779        43.63958        -2.16657
O         34.93783        31.59936        -3.12403
H         34.80378        30.64569        -3.35909
O         57.12838        40.71610         2.79950
H         57.15862        39.83856         3.23795
O         48.21233        19.59678        -2.04674
H         47.36849        19.47233        -2.54304
O         51.82519        25.31316        -1.45768
H         51.10649        25.72731        -1.98173
O         39.84872        54.40239         3.59922
H         40.75299        54.67023         3.86808
O         46.48699        43.74828        -3.70648
H         45.66323        43.30553        -4.00529
O         34.80931        28.84931        -2.96384
H         35.45929        28.33906        -3.49212
O         50.53549        49.93649        -3.73624
H         50.01705        49.14185        -4.00093
O         37.20525        46.12950         2.35915
H         36.48278        46.54133         2.88011
O         41.69866        16.18139        -1.32839
H         42.50593        16.59427        -1.70272
O         38.79800        35.66302        -3.58764
H         38.31930        34.91040        -4.01288
O         27.00459        34.98199         2.59389
H         27.87537        34.56587         2.77178
O         44.25517        37.88245        -3.47443
H         43.51493        38.30261        -3.96255
O         26.92331        43.77376         2.83550
H         27.71674        43.27895         3.13297
O         34.55945        29.36454         0.65311
H         33.84778        29.73127         1.21900
O         55.72317        46.89128         1.90402
H         56.30007        47.58481         2.29294
H         22.10775        26.81450         0.86499
H         22.20987        29.24148         1.07652
H         22.32434        31.07648         1.73447
H         22.35391        33.51210         1.82319
H         22.18751        35.39368         1.04737
H         22.20029        37.83274         0.97450
H         22.22410        39.73014         0.98062
H         22.26756        42.15527         0.98282
H         22.29871        44.00690         0.53465
H         22.32525        46.46394         0.44803
H         25.29487        23.40790        -0.15697
H         23.30306        24.56603         0.62618
H         25.68299        49.83405         0.71045
H         23.55599        48.59830         0.55110
H         26.97348        22.49249        -0.90723
H         27.36575        50.75011         1.16185
H         28.99653        21.34075        -1.22442
H         29.46738        51.92654         1.37485
H         32.78845        19.13654        -0.22449
H         30.71124        20.33234        -0.61267
H         33.32166        54.03726         1.52375
H         31.18450        52.88210         1.41308
H         34.44941        18.26284         0.35820
H         34.98956        54.91712         1.74508
H         36.55826        17.08709         0.50243
H         37.13379        56.02368         2.10536
H         40.31713        15.00856         0.90942
H         38.22914        16.25329         0.95529
H         40.84199        58.11868         1.99147
H         38.85834        56.86507         2.67288
H         42.77464        15.14644         1.22297
H         43.15097        58.18800         1.17940
H         44.84725        16.43708         1.23480
H         45.07139        57.10879         0.08632
H         48.59595        18.45639         0.52843
H         46.50506        17.36623         0.93743
H         47.82033        55.34452        -2.81438
H         46.20742        56.38550        -1.23796
H         50.31273        19.28597        -0.25152
H         50.36351        53.92927        -3.22510
H         52.31461        20.55597         0.38968
H         52.35898        52.97129        -2.11644
H         55.54852        22.72533         2.24077
H         53.57990        21.49013         1.51546
H         55.78825        50.97925        -0.31617
H         53.79170        52.12909        -1.06974
H         57.16984        23.67745         2.55225
H         57.42971        50.03375        -0.11642
H         59.17994        24.95970         3.15478
H         60.39474        27.07796         3.23133
H         60.48919        29.51156         3.05112
H         60.44423        31.45986         2.92014
H         60.51117        33.85105         2.46845
H         60.59500        35.62398         1.86148
H         60.67414        38.00629         1.46190
H         60.72125        39.80959         0.99160
H         60.80754        42.15173         0.31740
H         60.85325        44.24878         0.55255
H         60.73177        46.71297         0.61647
H         59.50433        48.79403         0.26650
