         260
 CSIRO Nanostructure Databank - Neutral Graphene Oxide Data Set
C         30.96188        32.36391        -1.76902
C         30.68801        33.33017        -0.97245
C         30.47023        36.33431        -0.41739
C         30.50679        37.59326        -0.62251
C         30.84807        40.72683        -1.22174
C         30.83738        41.99055        -1.23832
C         33.40495        29.61939        -2.02453
C         32.41788        30.29683        -2.32423
C         32.62898        31.20938         0.27877
C         31.43258        31.09131        -1.66169
C         32.61401        32.41607         0.92791
C         31.17132        34.02876         0.11261
C         32.47383        36.22402         0.84659
C         31.30545        35.45210         0.23723
C         32.56742        37.71031         0.52408
C         31.55736        38.43605        -0.32107
C         32.87518        40.54925        -0.11419
C         31.74408        39.82761        -0.60925
C         32.93998        41.95867        -0.14842
C         31.86248        42.76708        -0.66751
C         32.97854        44.69760         0.28146
C         32.02960        44.14465        -0.30128
C         35.55745        27.15181        -0.61146
C         35.39884        28.62083        -0.73014
C         34.00613        29.21374        -0.68952
C         35.18906        31.30787         0.52512
C         33.93058        30.49632         0.17858
C         35.07909        32.75322         0.84725
C         33.82274        33.14143         1.23650
C         35.03840        35.99461         1.00851
C         33.77083        35.51852         1.19655
C         35.14536        37.44304         0.59501
C         33.93517        38.31263         0.43031
C         35.32039        40.44178         0.36534
C         33.96838        39.82203         0.67220
C         35.40086        41.85538         0.42135
C         34.09823        42.57724         0.57280
C         35.40073        44.68633         1.42757
C         34.09443        44.04389         0.97509
C         35.54378        46.20132         1.23410
C         37.79698        26.99250         0.35088
C         36.60142        26.53460        -0.37925
C         37.75896        28.50937         0.46802
C         36.60488        29.30059        -0.12425
C         37.66390        31.46572         0.41999
C         36.52967        30.73957         0.25744
C         37.57810        32.99164         0.39829
C         36.35384        33.53397         1.22061
C         37.64912        35.90052         1.05081
C         36.31722        35.16430         1.21572
C         37.69225        37.42361         0.97036
C         36.40397        38.20152         0.87355
C         37.70426        40.08314        -0.04078
C         36.45222        39.59486         0.34690
C         37.82793        42.09758        -0.09427
C         36.59705        42.62343         0.38126
C         37.95412        44.80711         0.66356
C         36.60109        44.08182         0.65319
C         38.01884        46.17764         1.26223
C         36.71153        46.66457         1.36769
C         40.41655        24.37003        -0.50887
C         39.38010        25.03959        -0.13015
C         40.29662        27.21571        -0.20222
C         39.09753        26.32052         0.24109
C         40.34048        28.56109         0.54264
C         39.01510        29.33152         0.84303
C         40.24112        31.55279         0.20235
C         38.97485        30.76002         0.26385
C         40.22231        33.04096         0.30403
C         38.92758        33.69672         0.81210
C         40.19883        35.88999         0.52462
C         38.85186        35.19040         0.38868
C         40.15476        37.34297         0.34337
C         38.94376        38.11963         0.63751
C         40.16240        40.30374         0.40617
C         38.95917        39.50394         0.33659
C         40.27387        41.71565         0.32263
C         39.13128        42.58630         0.23281
C         40.41298        44.64590         0.63812
C         39.20805        43.99881         0.55914
C         40.52167        46.09826         0.88628
C         39.29024        46.87957         1.39605
C         40.49271        48.90630         0.66313
C         39.49105        48.30206         1.07917
C         42.94464        24.60039        -1.06045
C         41.65210        24.98380        -0.67425
C         42.90796        27.27928        -0.31497
C         41.64336        26.45091        -0.20104
C         42.78996        28.77788        -0.30671
C         41.60346        29.36006         0.42615
C         42.79772        31.63992         0.35910
C         41.54028        30.86262         0.52784
C         42.75155        33.12136         0.05469
C         41.39137        33.75636         0.29923
C         42.68069        35.95483         0.28610
C         41.40254        35.22163         0.41326
C         42.71498        37.32391         0.26642
C         41.45709        38.10424         0.28337
C         42.87466        40.44102        -0.40933
C         41.27367        39.44289         0.95355
C         42.95827        41.65348         0.55095
C         41.57397        42.38390         0.84987
C         42.63530        44.46285        -0.53527
C         41.73995        43.91995         0.59965
C         42.68993        45.95909        -0.56072
C         41.53817        46.79242        -0.00071
C         42.83203        48.72644        -0.67682
C         41.49679        48.31393        -0.24221
C         43.96779        25.34428        -1.14323
C         45.32558        27.50580        -0.99964
C         44.15747        26.70677        -0.91107
C         45.34167        28.88912        -0.72234
C         44.05878        29.58832        -0.48426
C         45.24963        31.64439         0.29538
C         44.09582        30.96493         0.06307
C         45.17456        33.01042         0.90187
C         43.85569        33.83483         0.86132
C         45.34677        35.90819         0.19993
C         43.96512        35.13859         0.05140
C         45.15024        37.40050         0.61881
C         43.99450        38.00880        -0.19111
C         45.24267        40.16041        -0.19285
C         44.03586        39.52681        -0.16392
C         45.31414        41.64435        -0.42400
C         44.11330        42.46210        -0.10222
C         45.08982        44.40295        -1.37071
C         43.81690        43.62049        -1.02914
C         45.10552        45.78454        -1.34195
C         44.07580        46.62724        -0.63950
C         43.75984        48.02742        -1.11734
C         47.75672        27.50414        -0.94653
C         46.65339        27.01236        -1.23353
C         47.95880        28.95275        -0.80545
C         46.60111        29.67610        -0.67249
C         47.86333        31.69181         0.49403
C         46.58835        31.07930        -0.07190
C         47.80160        33.03878         1.19190
C         46.45752        33.74046         1.14625
C         47.73333        36.00432         1.19727
C         46.43045        35.24447         1.09824
C         47.70818        37.47494         0.85193
C         46.46106        38.13097         0.39839
C         47.73416        40.08635        -0.50855
C         46.48268        39.40962        -0.08572
C         47.69030        41.41460        -1.22416
C         46.27417        42.06371        -1.53193
C         47.63047        44.30629        -2.13302
C         46.28248        43.59001        -1.80049
C         47.49069        45.74887        -1.90126
C         46.38353        46.29062        -1.74554
C         50.51575        29.13603        -0.48685
C         49.14485        29.48880        -0.07969
C         50.43371        31.53394         0.98833
C         49.11838        30.83949         0.62415
C         50.40139        33.07232         1.31299
C         49.08007        33.82455         1.38811
C         50.23052        35.98143         0.85985
C         49.07706        35.31501         1.19028
C         50.25261        37.44791         0.54188
C         48.98306        38.21595         0.63724
C         50.14561        40.40503         0.21064
C         48.98900        39.53902        -0.00384
C         50.11905        41.84299        -0.36094
C         48.97206        42.23517        -1.28706
C         50.16034        44.36847        -1.50986
C         48.94508        43.63255        -1.90374
C         51.54726        29.65936        -0.02136
C         52.84639        31.73589         0.84603
C         51.75981        30.93848         0.55686
C         52.69684        33.00319         1.02659
C         51.63621        33.85497         1.08775
C         52.64004        36.20247         0.99222
C         51.56162        35.24101         0.54387
C         52.64074        37.43277         0.95836
C         51.52926        38.29682         0.54160
C         52.41856        40.72866         0.61933
C         51.44387        39.77158         0.59868
C         52.44081        41.96890         0.26215
C         51.42956        42.61992        -0.39763
C         51.20713        43.86018        -1.06607
O         48.33639        33.25890         2.51331
O         43.06128        29.41225        -1.57637
O         39.62564        30.98810        -1.02227
O         34.53511        30.38551         1.49738
O         36.40445        29.18314        -1.58894
O         37.74542        41.06318        -1.03935
O         48.34646        38.22388         1.97283
O         47.43545        31.96269        -0.88088
O         42.13482        45.20071        -1.68302
O         34.64417        37.81285        -0.74431
O         47.82460        40.21518        -2.03164
O         43.15726        33.35928        -1.32649
O         41.25779        28.65358         1.64888
O         32.11497        37.25370         1.83002
O         46.77506        43.82293        -3.16860
O         31.45645        30.64227        -0.26712
O         45.30647        42.55410         0.73219
O         42.50351        26.64649         0.94603
O         41.34818        42.30139         2.27533
O         37.16626        35.52170         2.35780
O         47.42045        29.67914        -1.90705
O         50.96082        37.77587        -0.71224
O         37.40642        27.63577         1.59457
O         48.92862        29.58353         1.35032
O         49.70216        41.59783         1.00660
O         37.02078        38.02215         2.16065
O         42.14379        40.36294        -1.38078
O         50.48676        32.04901         2.33629
O         37.06449        44.80137        -0.52073
O         46.83528        35.81979         2.36283
O         40.72318        37.86880        -0.94659
O         42.24867        31.37410         1.69084
O         49.30264        42.48440        -2.69211
O         40.85897        47.42408        -1.15992
O         43.90224        34.65853        -1.33499
O         45.70037        33.12497         2.25708
O         33.68890        39.98171         2.07809
O         40.34063        46.42617         2.29739
O         33.56509        34.33764         1.90109
O         31.43628        33.17642         1.20911
O         44.14906        37.66075        -1.59222
H         43.40628        38.06551        -2.09218
O         44.76275        37.49057         1.99178
H         45.50098        37.14942         2.55238
O         45.77027        41.43853        -2.70957
H         46.27159        41.78705        -3.47909
O         51.63575        35.14693        -0.87296
H         51.59804        36.06652        -1.23668
O         38.57763        35.34903        -1.02565
H         39.38011        35.11771        -1.53878
O         39.12572        33.63709         2.22842
H         38.26300        33.76482         2.69731
O         43.40949        34.11656         2.17235
H         44.09352        33.80666         2.81263
O         36.57350        33.15329         2.58872
H         35.84927        33.51640         3.14109
O         33.68352        43.02514         1.93317
H         33.60988        40.93811         2.28831
O         35.62207        44.38889         2.79007
H         34.76161        44.32969         3.25753
O         43.36969        42.99254        -2.24681
H         42.92495        43.68037        -2.79240
O         46.01464        35.88444        -1.07234
H         45.41736        36.30075        -1.74059
O         41.74748        39.62357         2.07128
H         41.60572        41.38215         2.55883
O         43.48328        41.18522         1.79032
H         44.28585        41.71483         2.01237
O         42.49947        44.40161         1.73633
H         42.17323        43.89753         2.52369
O         37.25673        33.28573        -0.97449
H         37.89365        32.81776        -1.55609
O         38.95573        29.56245         2.25193
H         38.69724        28.72331         2.69508
O         33.13164        28.27460        -0.09965
H         33.37044        27.37341        -0.40990
O         40.00987        27.57953        -1.56743
H         39.91005        26.76917        -2.11091
O         44.51279        46.72704         0.71976
H         45.40112        47.14053         0.74081
