         404
 CSIRO Nanostructure Databank - Neutral Graphene Oxide Data Set
C          1.75801         4.17510         3.19946
C          0.49787         4.60067         2.74852
C          1.46181         6.77622         2.01497
C          0.32263         5.79220         2.06522
C          1.20824         8.04971         1.18935
C          0.17918         8.93939         1.56919
C          1.16984        10.72437         0.20792
C          0.10980        10.20022         0.99659
C          1.11928        12.05745        -0.33002
C         -0.09257        12.79731        -0.29954
C          1.01008        14.70796        -1.31278
C         -0.15943        14.06460        -0.82057
C          0.96935        16.11437        -1.62709
C         -0.25386        16.84968        -1.66371
C          0.93811        18.98007        -1.84440
C         -0.27268        18.21738        -1.78088
C          0.93113        20.39124        -1.84342
C         -0.26181        21.19041        -1.88947
C          0.93705        23.24195        -1.16712
C         -0.26545        22.54171        -1.67525
C          1.02855        24.72068        -1.05295
C         -0.13040        25.50238        -1.10959
C          1.14620        27.54733        -0.73761
C         -0.07624        26.88394        -0.94287
C          1.19093        28.98974        -0.52846
C          0.01198        29.76976        -0.48545
C          1.27637        31.82779        -0.14000
C          0.04933        31.14056        -0.29182
C          1.31414        33.27864         0.10711
C          0.12963        34.06386         0.18189
C          1.40555        36.08241         0.68964
C          0.17561        35.42158         0.44923
C          1.48507        37.48879         0.95315
C          4.31566         4.41941         3.12016
C          2.96759         4.76637         2.63558
C          4.03994         6.82511         1.59984
C          2.79735         6.02802         1.81622
C          4.05490         7.66604         0.53443
C          2.12270         8.54147         0.25008
C          3.53996        10.49158        -0.61925
C          2.30776         9.91504        -0.06862
C          3.47749        11.82289        -1.07237
C          2.26990        12.60121        -0.95935
C          3.44065        14.65981        -1.75980
C          2.22754        13.97636        -1.38236
C          3.42329        16.08428        -1.87782
C          2.18863        16.81824        -1.80755
C          3.42843        18.93754        -1.84663
C          2.18251        18.24468        -1.87493
C          3.46595        20.34596        -1.67910
C          2.22811        21.15046        -1.96720
C          3.50402        23.18620        -1.09794
C          2.21349        22.46805        -1.22405
C          3.51301        24.58564        -0.83347
C          2.29228        25.35798        -0.86764
C          3.62423        27.45071        -0.59451
C          2.35158        26.78342        -0.72866
C          3.67870        28.88680        -0.42169
C          2.43698        29.64668        -0.36191
C          3.77042        31.73123        -0.10623
C          2.46197        31.05639        -0.18133
C          3.80754        33.20412         0.17573
C          2.54052        33.93225         0.32964
C          3.86544        35.95050         0.90126
C          2.60631        35.31738         0.64909
C          3.92031        37.35080         1.15862
C          2.69296        38.10061         1.16501
C          6.70515         4.90868         3.48453
C          5.41088         5.25643         3.00152
C          6.49195         7.15925         1.76002
C          5.24749         6.67359         2.47675
C          6.38505         8.10993         0.64169
C          5.06944         8.64041         0.23565
C          6.07340        10.58785        -0.83567
C          4.87362         9.84081        -0.45703
C          5.93769        11.75349        -1.74753
C          4.57207        12.41479        -1.95578
C          5.84453        14.64758        -2.24946
C          4.65351        13.94451        -1.92142
C          5.86522        16.08158        -2.25960
C          4.64567        16.78728        -2.04388
C          5.88785        18.89978        -1.89039
C          4.65336        18.20920        -1.93457
C          5.91206        20.27443        -1.49782
C          4.66975        21.00246        -1.37406
C          5.88778        23.03522        -0.54688
C          4.67072        22.41334        -1.06274
C          5.97288        24.49514        -0.48082
C          4.76173        25.25030        -0.62896
C          6.12658        27.30254        -0.50671
C          4.80281        26.67051        -0.55491
C          6.17921        28.81958        -0.33367
C          4.90831        29.53740        -0.20625
C          6.17705        31.53052         0.52866
C          4.98775        30.92533         0.13840
C          6.16275        32.90759         1.15311
C          5.03286        33.79372         0.71903
C          6.32480        35.80442         1.27163
C          5.07169        35.16661         0.97831
C          6.37160        37.22345         1.43289
C          5.16323        37.96994         1.40139
C          9.10613         5.41470         3.77090
C          7.84792         5.70171         3.21419
C          8.92416         7.52889         1.85736
C          7.73060         6.79354         2.24365
C          8.81191         8.66703         1.05801
C          7.59746         8.93887         0.29481
C          8.53072        10.98718        -0.71919
C          7.35799        10.21213        -0.41576
C          8.46218        12.10251        -1.52794
C          7.17952        12.53891        -2.10504
C          8.26827        14.67294        -2.80316
C          7.09926        13.98167        -2.45395
C          8.29001        16.12994        -2.85574
C          7.08553        16.80129        -2.45308
C          8.32936        18.93016        -2.17029
C          7.10430        18.21181        -2.18433
C          8.37654        20.29301        -1.73772
C          7.15678        20.91052        -1.33142
C          8.47439        22.93821        -0.67938
C          7.22289        22.21409        -0.68809
C          8.44695        24.27719        -0.07061
C          7.21335        25.10260        -0.18282
C          8.54344        27.18776         0.10803
C          7.31704        26.51461        -0.14028
C          8.57852        28.63080         0.30013
C          7.40714        29.41878         0.20376
C          8.64308        31.42513         0.90655
C          7.41172        30.78448         0.58006
C          8.68097        32.86486         1.12801
C          7.49154        33.61558         1.14832
C          8.78794        35.68900         1.45497
C          7.53478        35.03042         1.29199
C          8.83173        37.12585         1.59973
C          7.62899        37.85991         1.59691
C         11.52024         5.89864         4.04910
C         10.28128         6.15197         3.43121
C         11.36706         7.89141         2.04387
C         10.19131         7.20307         2.45187
C         11.29183         8.99793         1.15609
C          9.96564         9.54108         0.87040
C         11.07498        11.14021        -0.76999
C          9.84649        10.69043        -0.10139
C         10.93929        12.20115        -1.71942
C          9.65321        12.77292        -1.95308
C         10.68257        14.31894        -3.44547
C          9.52177        13.90980        -2.78529
C         10.67211        16.42403        -3.66980
C          9.46516        16.92786        -3.07714
C         10.74146        19.01196        -2.60977
C          9.52729        18.29247        -2.60966
C         10.81521        20.35969        -2.14521
C          9.61114        21.00478        -1.69109
C         10.89531        23.08904        -1.14009
C          9.64877        22.35851        -1.17219
C         10.98034        24.35696        -0.57412
C          9.77541        24.99249         0.00494
C         11.00180        27.08069         0.33449
C          9.76545        26.45809         0.13025
C         10.98988        28.44538         0.87690
C          9.78088        29.25983         0.70335
C         11.12704        31.30153         1.11060
C          9.83817        30.65511         0.93939
C         11.16665        32.76898         1.08644
C          9.92824        33.53670         1.25429
C         11.25604        35.58735         1.77321
C          9.99285        34.93461         1.46393
C         11.29624        37.04504         1.84840
C         10.08531        37.76957         1.72391
C         13.89953         6.42870         4.40221
C         12.71473         6.59086         3.68173
C         13.77813         8.23388         2.13094
C         12.64684         7.54754         2.58309
C         13.72413         9.20417         1.07695
C         12.44022         9.61284         0.61772
C         13.53354        11.00991        -1.11735
C         12.34055        10.62750        -0.40816
C         13.36712        11.98437        -2.23697
C         12.10473        12.75800        -2.30749
C         13.15386        14.64343        -3.68431
C         11.98319        13.89015        -3.12700
C         13.17483        16.16760        -3.59464
C         11.95174        16.93577        -3.44384
C         13.24316        19.02656        -2.81597
C         11.95513        18.44342        -3.29268
C         13.28815        20.37841        -2.45029
C         12.06256        21.05985        -2.13133
C         13.37256        23.22321        -1.69844
C         12.01982        22.57232        -2.00976
C         13.43353        24.46777        -0.90123
C         12.21771        25.09720        -0.49232
C         13.47758        27.10741         0.27084
C         12.23166        26.40486         0.08844
C         13.54812        28.40364         0.77512
C         12.31035        29.12584         1.12764
C         13.59316        31.23197         1.43655
C         12.32368        30.59900         1.15160
C         13.63097        32.58059         1.78875
C         12.49471        33.44975         1.46736
C         13.62871        35.47096         2.48453
C         12.42325        34.84499         1.93806
C         13.72812        37.03246         2.34800
C         12.53164        37.71239         1.89403
C         16.30254         7.21898         4.87919
C         15.14028         7.07220         3.98184
C         16.06139         9.09946         2.61057
C         15.08091         7.95796         2.76098
C         16.15829         9.39849         1.11630
C         14.92265         9.67357         0.43138
C         15.94885        10.86763        -1.61176
C         14.79608        10.47503        -0.78163
C         15.84672        11.86676        -2.64905
C         14.53904        12.47983        -3.05195
C         15.68548        14.73620        -3.78239
C         14.45961        13.88694        -3.70117
C         15.67999        16.13913        -3.57511
C         14.40272        16.83215        -3.46918
C         15.75209        19.03267        -3.15648
C         14.43466        18.31464        -3.29848
C         15.76426        20.33892        -2.46251
C         14.58947        21.01904        -2.25354
C         15.90945        23.01050        -1.30187
C         14.65704        22.45012        -1.85791
C         15.91904        24.33811        -0.81970
C         14.68405        25.04607        -0.63108
C         16.03896        27.02773         0.31226
C         14.72022        26.44777        -0.17299
C         16.03555        28.30364         1.07564
C         14.79232        29.06520         1.10442
C         15.99964        30.98769         2.11164
C         14.77901        30.39742         1.53344
C         16.12008        32.46002         2.20017
C         14.85311        33.18427         2.36091
C         16.20955        35.34256         2.43073
C         14.90474        34.67844         2.58891
C         16.24590        36.78274         2.29189
C         15.07417        37.56570         2.20675
C         18.66210         7.84288         5.21372
C         17.39731         7.96735         4.51904
C         18.70133         8.99093         2.57671
C         17.38576         8.82616         3.30805
C         18.65576         9.14496         1.10826
C         17.39087         9.23777         0.48262
C         18.41382        10.78998        -2.04770
C         17.20419        10.24007        -1.53260
C         18.30963        11.87021        -2.97347
C         16.97791        12.13211        -3.40833
C         18.14722        14.72279        -4.05770
C         16.88573        14.15302        -4.19954
C         18.17944        16.08683        -3.66360
C         16.94443        16.79842        -3.53899
C         18.33027        18.85775        -2.92417
C         17.02360        18.26138        -3.34901
C         18.31406        20.09929        -2.08767
C         17.04099        20.85994        -1.89966
C         18.35105        22.83776        -1.08996
C         17.11715        22.27129        -1.43349
C         18.39203        24.12488        -0.46111
C         17.16888        24.89646        -0.32823
C         18.41446        26.56886         1.02121
C         17.19459        26.12258         0.33996
C         18.45756        28.00588         1.59428
C         17.21648        28.82060         1.55965
C         18.56818        30.88558         2.30351
C         17.25322        30.15844         2.18780
C         18.58475        32.36536         2.18958
C         17.33828        33.11379         2.27755
C         18.65269        35.23061         2.19157
C         17.38325        34.57525         2.32223
C         18.70359        36.66368         2.16361
C         17.50916        37.41050         2.18395
C         19.85676         8.05288         4.57324
C         21.07144         8.32604         2.41607
C         19.92331         8.44017         3.19303
C         21.05927         8.63581         1.03795
C         19.87561         9.00976         0.39047
C         20.83013        11.03442        -2.10365
C         19.71531        10.33195        -1.66950
C         20.69253        12.18978        -2.90612
C         19.45920        12.61900        -3.38791
C         20.62633        14.68378        -4.23038
C         19.37479        13.85732        -4.33285
C         20.64863        15.94876        -3.74163
C         19.46311        16.69615        -3.40000
C         20.72361        18.62367        -2.42984
C         19.54692        18.01150        -2.86486
C         20.75654        19.99449        -2.03756
C         19.62327        20.75264        -1.86908
C         20.82245        22.63469        -0.70442
C         19.66315        22.23496        -1.57581
C         20.80824        23.80774        -0.03802
C         19.62517        24.64173         0.01991
C         20.87533        26.55335         1.02982
C         19.68679        25.91513         0.67791
C         20.90685        27.89666         1.48006
C         19.76722        28.65833         1.65741
C         20.99001        30.91397         1.54760
C         19.84483        30.11155         1.98960
C         20.98229        32.26659         1.66622
C         19.80263        33.02256         2.03167
C         21.08209        35.17234         2.00206
C         19.86057        34.48252         2.06858
C         21.12967        36.57644         2.01494
C         19.96475        37.31829         2.07613
O         11.56039        28.52439         2.24259
O         12.06382        33.31264         0.06251
O         15.54884        27.27910        -1.06369
O          6.61311        11.55581        -3.04752
O          7.21470         7.76329        -0.51989
O         13.65709        11.46842        -3.60707
O         17.53424        19.91858        -0.83838
O         18.28123        26.83332         2.45762
O         13.45615        36.31199         3.62411
O         19.92891         9.11104        -1.00504
O         17.87653        18.99361        -4.30951
O         16.81238        12.81667        -4.62400
O          6.48166        22.31838         0.57127
O         10.55630        15.27171        -4.45399
O         17.34815         9.00901        -0.89739
O         19.42416        30.38167         3.37544
O         15.02387        19.06346        -4.43975
O         15.60364         6.62446         2.59207
O         14.15321        23.33392        -2.94269
O          6.37741        28.19573        -1.65198
O          2.79099         4.78993         1.10841
O          2.97218         7.61322        -0.35130
O         16.40586        30.30435         3.36802
O          9.19157        24.34775         1.19452
O          9.80555        10.93716         1.36182
O         18.12919        10.08415         3.41601
O          3.99246        32.68003        -1.22193
O          1.47466        22.51326         0.02668
O         14.75100        33.75630         3.72342
O         13.65322        14.01802        -4.91261
O         19.89473        22.87226        -2.88690
H         19.94987        23.84014        -2.73693
O          1.60733         7.28386         3.38660
H          0.77070         7.72554         3.64280
O         11.64447        23.02458        -3.35154
H         12.48283        23.07059        -3.87035
O         19.29859        13.34499        -5.68111
H         18.42915        12.89096        -5.77081
O          2.34234        21.53485        -3.38756
H          2.37665        20.71069        -3.91817
O         11.85990        18.94214        -4.69253
H         12.75025        18.85101        -5.10040
O          5.87234        32.63243         2.59313
H          6.00934        33.47165         3.08375
O          5.07855         7.53119         3.65060
H          5.81722         7.33702         4.26577
O         15.46366        10.23414         3.28442
H         16.19323        10.86894         3.46360
O          4.12664        12.09611        -3.30555
H          4.94008        11.88375        -3.82430
H          1.84144         3.31926         3.88496
H         -0.38323         3.98311         2.98219
H         -0.68091         6.10307         1.74050
H         -0.59941         8.61805         2.27749
H         -0.74907        10.83675         1.24370
H         -1.00162        12.34752         0.11900
H         -1.11591        14.60118        -0.78942
H         -1.21300        16.31888        -1.60072
H         -1.24038        18.73668        -1.79650
H         -1.21859        20.70109        -2.12691
H         -1.21076        23.09434        -1.77225
H         -1.10896        25.02584        -1.25650
H         -1.01840        27.44584        -0.96916
H         -0.96966        29.29307        -0.60442
H         -0.90076        31.69007        -0.26355
H         -0.85005        33.59773         0.01120
H         -0.75783        36.00227         0.47815
H          0.55564        38.07638         0.97445
H          4.43293         3.46226         3.65428
H          2.73901        39.18209         1.35934
H          6.83254         3.96350         4.03451
H          5.20226        39.05742         1.56309
H          9.19320         4.59102         4.49552
H          7.66613        38.95414         1.70515
H         11.57643         5.13766         4.84214
H         10.11581        38.86770         1.78116
H         13.89657         5.83275         5.32741
H         12.58300        38.78170         1.64325
H         16.34849         6.58953         5.78125
H         15.17870        38.62329         1.92140
H         18.65705         7.42365         6.23078
H         17.55830        38.50718         2.11773
H         20.79786         7.82410         5.09549
H         22.00171         7.96040         2.87437
H         21.97818         8.52464         0.44827
H         21.83319        10.69724        -1.81118
H         21.60653        12.73921        -3.16940
H         21.56085        14.23655        -4.59911
H         21.61558        16.47011        -3.68346
H         21.67070        18.06693        -2.43530
H         21.74683        20.44091        -1.86965
H         21.73039        22.01626        -0.69419
H         21.69557        24.11404         0.53327
H         21.83867        26.05503         0.85687
H         21.89240        28.36329         1.61950
H         21.86363        30.40786         1.11267
H         21.88119        32.81698         1.35773
H         22.03047        34.62217         1.94977
H         22.10379        37.08234         1.96350
H         19.99867        38.41689         2.06290
