         204
 CSIRO Nanostructure Databank - Neutral Graphene Oxide Data Set
C        -10.99601         0.75129         0.63612
C         -9.87852         1.48422         0.08465
C         -8.73270         0.68748        -0.40766
C         -7.43656         1.43979        -0.73866
C         -6.17645         0.69314        -0.64627
C         -4.94990         1.41424        -0.66035
C         -3.71217         0.69837        -0.72277
C         -2.46680         1.41715        -0.64297
C         -1.22564         0.69237        -0.53479
C         -0.01141         1.41008        -0.29119
C          1.20831         0.68439        -0.12888
C          2.46009         1.40003         0.05010
C          3.69463         0.72451         0.11148
C          4.93429         1.42284         0.18935
C          6.18138         0.70637         0.17574
C          7.39941         1.41804         0.29154
C          8.65327         0.66544         0.41327
C          9.98900         1.46184         0.26471
C         11.17098         0.67804        -0.14815
C         -9.85690         2.85606         0.01624
C         -8.66918         3.61340        -0.33381
C         -7.41759         2.89207        -0.54841
C         -6.19582         3.55428        -0.56068
C         -4.97063         2.83829        -0.68330
C         -3.70239         3.54880        -0.86802
C         -2.44096         2.83088        -0.62826
C         -1.22913         3.55839        -0.43562
C         -0.01060         2.84037        -0.24112
C          1.21958         3.54617        -0.01509
C          2.45184         2.82972         0.10940
C          3.67713         3.53005         0.32101
C          4.92442         2.83265         0.34152
C          6.17898         3.54961         0.39314
C          7.41541         2.83121         0.32605
C          8.65741         3.56404         0.19403
C          9.86998         2.88159        -0.00026
C         -8.68883         4.98904        -0.38104
C         -7.43474         5.75740        -0.73143
C         -6.21916         5.01676        -0.17916
C         -4.94161         5.77866        -0.40956
C         -3.69186         5.09236        -0.71765
C         -2.43389         5.74650        -0.35642
C         -1.22664         5.00327        -0.32103
C         -0.00392         5.69856        -0.06015
C          1.23008         4.96881         0.04836
C          2.47287         5.65154         0.27471
C          3.66227         4.95738         0.44131
C          4.92518         5.61551         0.97894
C          6.18809         4.95049         0.49875
C          7.40463         5.68020         0.37869
C          8.60196         4.98903         0.16052
C         -7.40887         7.19674        -0.25570
C         -6.22664         7.84571        -0.02380
C         -4.94460         7.13707        -0.14259
C         -3.70676         7.85174        -0.04187
C         -2.47121         7.14101        -0.06906
C         -1.24272         7.83728         0.16249
C         -0.04313         7.11138         0.16803
C          1.20566         7.81864         0.47913
C          2.48918         7.14376         0.06098
C          3.68023         7.88936         0.61660
C          4.94588         7.14137         0.87754
C          6.21960         7.84519         0.58856
C          7.37420         7.13183         0.39093
C         -6.17141         9.27352         0.23870
C         -4.99148         9.94458         0.30216
C         -3.71207         9.27040         0.17252
C         -2.51278         9.96501         0.26684
C         -1.24641         9.29043         0.26629
C         -0.05568        10.01018         0.28909
C          1.22766         9.34324         0.48761
C          2.51859        10.01691         0.20535
C          3.70588         9.34352         0.28429
C          5.00621         9.97458         0.20475
C          6.16811         9.27866         0.37330
C        -10.93321        -0.59301         0.84617
C         -9.74113        -1.37109         0.56361
C         -8.60708        -0.72521        -0.03125
C         -7.41116        -1.42315        -0.26636
C         -6.18419        -0.71326        -0.59477
C         -4.94983        -1.42440        -0.75995
C         -3.74248        -0.72590        -0.84968
C         -2.44138        -1.39132        -1.27842
C         -1.21928        -0.71337        -0.68411
C         -0.01953        -1.43262        -0.50877
C          1.17789        -0.72399        -0.19965
C          2.40883        -1.49039         0.02569
C          3.73479        -0.74001         0.16095
C          5.00205        -1.41996        -0.11861
C          6.20644        -0.72245        -0.01332
C          7.46996        -1.42512        -0.11735
C          8.66393        -0.76462         0.07054
C          9.93807        -1.46612        -0.05772
C         11.15219        -0.67628        -0.19991
C         -9.67857        -2.72666         0.86340
C         -8.50113        -3.48192         0.59488
C         -7.35153        -2.83038         0.02992
C         -6.17473        -3.57132        -0.21932
C         -5.07983        -2.91821        -1.04448
C         -3.74985        -3.66982        -0.98396
C         -2.44886        -2.91289        -1.09995
C         -1.20926        -3.61134        -0.69511
C         -0.01612        -2.88481        -0.54427
C          1.22106        -3.60305        -0.44193
C          2.42302        -2.90219        -0.33064
C          3.69122        -3.60090        -0.51064
C          4.99187        -2.84909        -0.45896
C          6.22471        -3.62565        -0.22470
C          7.49815        -2.88550        -0.53047
C          8.74103        -3.61944        -0.08631
C          9.96567        -2.84477        -0.10523
C         -8.45357        -4.86342         0.85957
C         -7.28334        -5.60510         0.62474
C         -6.12005        -4.94289         0.09758
C         -4.89771        -5.69781        -0.04685
C         -3.70294        -5.05099        -0.45035
C         -2.46716        -5.73725        -0.40724
C         -1.22276        -5.02688        -0.54946
C          0.01020        -5.74132        -0.41111
C          1.23594        -5.04014        -0.43784
C          2.47818        -5.74697        -0.30313
C          3.71257        -5.05302        -0.31049
C          4.93535        -5.72206        -0.09953
C          6.18716        -4.97602        -0.02960
C          7.41959        -5.69881         0.46786
C          8.70415        -4.94872         0.20550
C         -7.24425        -7.00812         0.88164
C         -6.08155        -7.74684         0.69670
C         -4.87448        -7.08302         0.27719
C         -3.65900        -7.81557         0.19250
C         -2.44590        -7.13994        -0.10531
C         -1.21342        -7.86055        -0.07698
C          0.01727        -7.16651        -0.22902
C          1.24717        -7.87292        -0.13134
C          2.48413        -7.16444        -0.16652
C          3.72559        -7.85819        -0.06408
C          4.94607        -7.14132        -0.01817
C          6.22012        -7.85138         0.02646
C          7.40795        -7.16425         0.11083
C         -6.04017        -9.16912         0.94041
C         -4.88300        -9.87817         0.81231
C         -3.64124        -9.22981         0.46388
C         -2.44162        -9.93641         0.40881
C         -1.20515        -9.27539         0.15899
C          0.02551        -9.97430         0.16820
C          1.25140        -9.29954         0.03028
C          2.50999        -9.98514         0.05605
C          3.71693        -9.30018        -0.00158
C          4.99436        -9.98346        -0.00780
C          6.17251        -9.30213        -0.02597
O         -2.32220        -1.13019        -2.70825
H         -2.72011        -1.90243        -3.17274
O          4.37517        -3.13738        -1.78443
O         -5.56558        -3.01411        -2.41482
H         -4.77217        -3.08588        -2.99381
O          7.55503        -2.87552        -2.00114
H          6.63763        -2.76202        -2.33511
O          1.25348         8.52068         1.73970
O          2.60448         7.32225        -1.38985
H          1.89986         6.78952        -1.81657
O         -6.39595         5.01940         1.27747
H         -5.61266         4.59240         1.68270
O          4.11934         7.67560         1.98518
O          4.89653         5.29151         2.40636
H          4.36708         6.00327         2.83894
O          7.29868        -5.68609         1.94371
H          6.49787        -6.20367         2.17507
O         -3.67839         4.43186        -2.03788
O         -7.32844         5.78746        -2.18170
H         -8.14746         6.18515        -2.54225
O          3.03674        -1.27892         1.35744
O         -3.04362        -3.57804        -2.28060
O          9.45564         1.03591         1.56752
O         -8.35181         0.97073        -1.78860
H         12.07647        -1.21960        -0.44912
H         12.09829         1.22535        -0.37609
H         10.74859         3.43073        -0.37101
H          9.53765         5.55436         0.03640
H          8.30665         7.66782         0.15559
H          7.12919         9.80747         0.28206
H          5.04545        11.05707         0.01101
H          2.50468        11.09593        -0.01353
H         -0.07921        11.10488         0.17960
H         -2.52632        11.05731         0.39801
H         -4.98474        11.03080         0.47771
H         -7.12185         9.81660         0.35033
H         -8.35179         7.76777        -0.25296
H         -9.64314         5.52852        -0.27278
H        -10.74598         3.42241         0.33443
H        -11.90273         1.31184         0.90820
H        -11.79632        -1.12029         1.27873
H        -10.54940        -3.23166         1.30714
H         -9.34587        -5.36976         1.25656
H         -8.15737        -7.50694         1.23949
H         -6.97192        -9.67531         1.23299
H         -4.87188       -10.96165         1.00200
H         -2.43885       -11.01893         0.60651
H          0.02138       -11.06436         0.31856
H          2.51208       -11.08345         0.12800
H          4.99479       -11.08376        -0.00714
H          7.12645        -9.85017        -0.03492
H          8.35698        -7.72176         0.14423
H          9.64043        -5.46670         0.47083
H         10.93209        -3.37255        -0.10266
