         651
 CSIRO Nanostructure Databank - Neutral Graphene Oxide Data Set
C          5.85168        31.73479         0.50278
C          5.84413        33.09764         0.46594
C          8.27542        27.35030         0.81127
C          8.31861        28.84471         0.58767
C          7.12725        29.57247         0.60592
C          8.29547        31.69998         0.34140
C          7.09145        30.99156         0.45555
C          8.31043        33.12704         0.14472
C          7.05401        33.86376         0.24884
C          8.19143        36.00809        -0.27404
C          7.02970        35.24470         0.18765
C          8.31772        37.45935        -0.09943
C         10.72853        23.11278         0.33902
C         10.70646        24.50470        -0.25755
C          9.50632        25.29981         0.16464
C         10.78898        27.38891         0.28480
C          9.54822        26.63961         0.40012
C         10.80676        28.80049         0.34370
C          9.56972        29.50457         0.49439
C         10.86246        31.69646         0.33981
C          9.55430        30.96809         0.53173
C         10.81062        33.07255        -0.27661
C          9.50688        33.80209        -0.07428
C         10.78515        35.96801        -0.46035
C          9.50516        35.21964        -0.42923
C         10.75329        37.41667        -0.62037
C          9.49676        38.14166        -0.36436
C         10.67522        40.33337        -0.48681
C          9.52118        39.57707        -0.28094
C         10.70542        41.75479        -0.42904
C         13.15059        18.83570         0.44095
C         13.12961        20.21079         0.62920
C         11.92066        20.96337         0.64590
C         13.19147        23.04893         0.16438
C         11.89292        22.37551         0.45232
C         13.23705        24.52947        -0.11033
C         11.98470        25.27402        -0.04379
C         13.27813        27.37026        -0.03833
C         12.01326        26.65525         0.09776
C         13.28054        28.80112        -0.09379
C         12.06433        29.51851         0.12492
C         13.29574        31.66285        -0.15399
C         12.08655        30.92675         0.07630
C         13.30461        33.09313        -0.14796
C         12.03329        33.86536         0.19708
C         13.23513        35.94573        -0.65509
C         11.97238        35.28335        -0.34044
C         13.22679        37.44082        -0.93635
C         11.92813        38.12763        -0.79940
C         13.22584        40.34363        -0.78418
C         11.91037        39.60147        -0.85747
C         13.16664        41.72361        -0.21723
C         11.90972        42.49911        -0.36821
C         13.19532        44.64548        -0.14424
C         11.97623        43.89949        -0.31781
C         13.20242        46.05326        -0.24505
C         15.68413        14.52602         0.07265
C         15.66480        15.94845         0.25835
C         14.47212        16.62796         0.33370
C         15.70671        18.83162         0.50801
C         14.41016        18.09894         0.29522
C         15.69462        20.26651         0.82855
C         14.40286        20.93492         0.90115
C         15.72481        23.13105         0.57090
C         14.42788        22.44630         0.72070
C         15.70682        24.54452         0.33153
C         14.51682        25.24323         0.06489
C         15.73165        27.33695        -0.62209
C         14.48574        26.65647        -0.11374
C         15.74642        28.83065        -0.41735
C         14.52609        29.52013        -0.27469
C         15.76023        31.67022        -0.40172
C         14.52659        30.95771        -0.28328
C         15.75996        33.09876        -0.39693
C         14.51451        33.77819        -0.27482
C         15.76575        36.02084        -0.33022
C         14.49049        35.26030        -0.21423
C         15.70412        37.45498        -0.68886
C         14.51588        38.17743        -0.78581
C         15.70177        40.34816        -0.59381
C         14.51148        39.61102        -0.71128
C         15.71952        41.76098        -0.36298
C         14.47048        42.46637        -0.02820
C         15.67948        44.61208        -0.01354
C         14.44900        43.93903        -0.00867
C         15.72028        46.07205         0.19010
C         14.36322        46.85708         0.09918
C         15.66506        49.00073        -0.12462
C         14.46044        48.31765        -0.11901
C         15.74720        50.42279        -0.14338
C         18.17968        10.33597        -0.60706
C         18.13637        11.72212        -0.35440
C         16.92142        12.40613        -0.20548
C         18.07239        14.45146         0.65910
C         16.86114        13.79055         0.11677
C         18.12257        15.87487         0.82508
C         16.99845        16.69801         0.25005
C         18.17039        18.83960         0.97053
C         16.88357        18.03721         1.02810
C         18.17261        20.21145         0.88411
C         16.90142        20.96457         0.86355
C         18.20875        23.09680         0.83944
C         16.90374        22.39826         0.78622
C         18.24864        24.58589         0.68067
C         16.96153        25.32166         0.46378
C         18.28473        27.31817        -0.56331
C         16.99183        26.71840        -0.05253
C         18.25091        28.82678        -0.44109
C         17.00254        29.52167        -0.45703
C         18.23051        31.67147        -0.54534
C         16.99546        30.95460        -0.46584
C         18.21349        33.10302        -0.65678
C         17.00377        33.82646        -0.53685
C         18.21811        35.99493        -0.69367
C         17.02147        35.26676        -0.53936
C         18.24808        37.41084        -0.68664
C         16.97754        38.13549        -0.89509
C         18.26891        40.32772        -0.61777
C         16.96662        39.64874        -0.88219
C         18.21967        41.80266        -0.50358
C         16.91387        42.50955        -0.41441
C         18.17035        44.66644        -0.25032
C         16.90173        43.90177        -0.17203
C         18.17763        46.13256        -0.04727
C         16.96105        46.80816        -0.03248
C         18.21963        48.98049         0.07710
C         16.96470        48.26796        -0.37067
C         18.22656        50.37654         0.10941
C         16.97641        51.11022        -0.08095
C         18.26166        53.22529        -0.06248
C         17.04422        52.51419        -0.18011
C         18.31426        54.59377        -0.36963
C         20.62635         6.11671        -1.32425
C         20.61063         7.50036        -1.15657
C         19.38905         8.22571        -0.97233
C         20.67966        10.38573        -0.94877
C         19.37922         9.60882        -0.81234
C         20.62608        11.61168        -0.04806
C         19.43125        12.53177        -0.37914
C         20.66479        14.45836         0.85132
C         19.40234        13.70318         0.62451
C         20.65591        15.80212         1.12282
C         19.36956        16.55035         1.21255
C         20.72459        18.77129         1.07723
C         19.41525        18.07986         1.24097
C         20.72743        20.22994         0.86852
C         19.43882        20.94364         0.77577
C         20.70868        23.00009         0.20722
C         19.44077        22.30856         0.65056
C         20.68992        24.51252         0.28635
C         19.52591        25.25879         0.31318
C         20.72226        27.38374        -0.06001
C         19.52888        26.67146         0.01120
C         20.73663        28.79814        -0.24623
C         19.47635        29.53218        -0.37170
C         20.71334        31.70055        -0.28757
C         19.45343        30.95118        -0.44495
C         20.78791        33.09586        -0.81152
C         19.47395        33.81362        -0.98386
C         20.79951        36.08788        -0.78299
C         19.48433        35.30971        -0.98785
C         20.66227        37.44282        -0.23047
C         19.44964        38.10182        -0.35701
C         20.64780        40.25428         0.25297
C         19.31136        39.53356         0.20153
C         20.62249        41.71923         0.40584
C         19.38487        42.49514         0.11809
C         20.78269        44.69330        -0.00590
C         19.47738        43.94429        -0.22765
C         20.57447        46.02853         0.74407
C         19.39886        46.81753         0.20545
C         20.65075        48.93946         0.55651
C         19.42368        48.23753         0.28416
C         20.63764        50.34347         0.60804
C         19.44947        51.08126         0.34403
C         20.69290        53.22825         0.44709
C         19.49040        52.51669         0.28599
C         20.66618        54.74000         0.52008
C         19.50878        55.35769        -0.24432
C         20.76524        57.49639        -0.53761
C         19.56465        56.66313        -0.68306
C         20.86744        58.77099        -1.25455
C         23.03667         3.24273        -1.64341
C         21.83529         3.94737        -1.53403
C         23.09633         6.02734        -1.45147
C         21.84465         5.35654        -1.42822
C         23.10749         7.48841        -1.40264
C         21.87327         8.21991        -1.05894
C         23.17934        10.20045        -0.34034
C         21.92679         9.55361        -0.72812
C         23.16270        11.44277         0.29029
C         21.88423        12.18421         0.49517
C         23.21425        14.34231         1.06200
C         21.89534        13.62748         0.94615
C         23.23908        15.85568         1.27044
C         21.89560        16.58774         1.39117
C         23.22074        18.81504         1.02720
C         21.89265        18.07016         1.20095
C         23.14569        20.27871         1.51696
C         21.90416        20.93555         0.95174
C         23.26039        23.02534         0.44739
C         21.93423        22.44402         0.94931
C         23.27313        24.39694        -0.07177
C         21.95548        25.18296        -0.04982
C         23.23642        27.34320        -0.37095
C         22.02317        26.66718         0.27625
C         23.21854        28.82130        -0.07054
C         21.98589        29.48475        -0.15403
C         23.29904        31.64954        -0.42714
C         21.99135        30.96016        -0.10714
C         23.20104        33.15552        -0.28558
C         22.04720        33.83677        -0.56393
C         23.08165        35.86321         0.39731
C         22.14513        35.36384        -0.71778
C         23.12439        37.38087         0.51991
C         21.76299        38.07997         0.59638
C         23.09453        40.31970         0.29738
C         21.83366        39.58351         0.34405
C         23.11804        41.69904         0.37747
C         21.89490        42.46172         0.48091
C         23.10691        44.55094         0.99033
C         21.87713        43.83151         0.60968
C         23.11348        46.04052         0.91968
C         21.86474        46.80474         0.68325
C         23.19150        48.85794         0.77997
C         21.89913        48.17750         0.67066
C         23.17208        50.32620         0.97365
C         21.87667        51.09276         0.90909
C         23.16873        53.23600         0.65205
C         21.92987        52.55095         0.64925
C         23.17597        54.66360         0.38391
C         22.00742        55.35526         0.18592
C         23.34047        57.37353        -0.55086
C         22.04846        56.80522        -0.08962
C         23.32921        58.60854        -1.33739
C         22.08584        59.39718        -1.49201
C         23.42774        61.38433        -2.06874
C         22.19118        60.71426        -2.00850
C         24.26374         3.90593        -1.63739
C         25.58326         6.01011        -1.42348
C         24.31910         5.31701        -1.53284
C         25.66695         7.36678        -1.18258
C         24.43825         8.18897        -1.22649
C         25.67440        10.05780        -0.25552
C         24.44033         9.50509        -0.56430
C         25.73580        11.38474         0.37334
C         24.42741        12.06883         0.74198
C         25.48333        14.13809         0.07759
C         24.41209        13.56182         0.66315
C         25.51771        16.32649         0.28846
C         24.44260        16.69521         1.05123
C         25.72238        18.83314         1.31095
C         24.44198        18.08264         1.63633
C         25.70655        20.30097         1.54618
C         24.44685        21.02638         1.24278
C         25.74369        23.11816         0.77746
C         24.46976        22.37716         0.83796
C         25.77273        24.49479         0.45466
C         24.60680        25.14897        -0.24283
C         25.67263        27.36983         0.22314
C         24.52468        26.64577         0.00700
C         25.63498        28.82061         0.31669
C         24.44079        29.51418         0.20320
C         25.71192        31.68815         0.23844
C         24.38712        31.01574         0.47415
C         25.73803        33.10369        -0.29029
C         24.44979        33.87632        -0.09733
C         25.65921        36.02816         0.04204
C         24.44674        35.23067         0.14171
C         25.65416        37.39311        -0.00442
C         24.40426        38.13204         0.29924
C         25.64542        40.33473        -0.26778
C         24.33563        39.58328        -0.05620
C         25.67386        41.81455        -0.01721
C         24.36829        42.49072         0.24972
C         25.65976        44.57094         0.90306
C         24.40109        43.74965         1.08170
C         25.63383        45.94129         0.98360
C         24.40867        46.70180         0.51457
C         25.68094        48.84337         0.95338
C         24.39376        48.17829         0.81105
C         25.71389        50.29620         0.65913
C         24.41004        51.06553         0.61433
C         25.67522        53.17369         0.67600
C         24.43153        52.53533         0.71197
C         25.74749        54.65129         0.62236
C         24.46608        55.40383         0.39366
C         25.81839        57.34210        -0.53326
C         24.52020        56.71755        -0.28664
C         25.87541        58.68613        -0.93590
C         24.71867        59.35379        -1.50084
C         24.62862        60.78884        -1.72433
C         26.90552         8.06596        -0.95233
C         28.25707        10.09544        -0.34367
C         26.92147         9.38888        -0.56859
C         28.14526        11.60920        -0.29164
C         26.95914        12.17500         0.07709
C         28.04419        14.55767         0.01353
C         26.85505        13.63488         0.20550
C         28.00635        16.07637         0.03363
C         26.85136        16.83210         0.42766
C         28.19939        18.84117         1.04042
C         26.88415        18.18164         0.92971
C         28.25990        20.30767         1.12071
C         27.00881        21.04227         1.44182
C         28.19730        23.15803         1.01390
C         26.97846        22.47877         1.08841
C         28.20849        24.56164         0.78142
C         26.97007        25.23258         0.52640
C         28.14516        27.38136         0.26406
C         26.96828        26.68090         0.34250
C         28.12382        28.87078        -0.01332
C         26.92233        29.52881         0.67947
C         28.15744        31.70876         0.35785
C         26.90110        31.01368         0.36240
C         28.15615        33.15927         0.53752
C         26.85116        33.91112         0.40687
C         28.20255        36.06153         0.07407
C         26.94402        35.29936        -0.29909
C         28.18905        37.44351        -0.09140
C         26.90060        38.12090        -0.50043
C         28.10092        40.28342         0.05106
C         26.91173        39.59528        -0.16856
C         28.11828        41.71746         0.36446
C         26.93572        42.44014         0.46220
C         28.10561        44.49615         1.16167
C         26.91900        43.84076         0.87689
C         28.13544        45.90764         1.61118
C         26.82820        46.68460         1.41677
C         28.13783        48.85832         1.39312
C         26.83973        48.15556         1.23065
C         28.18096        50.35282         1.21516
C         26.93398        51.07139         0.86602
C         28.22223        53.19924         0.97534
C         26.91531        52.44581         0.76665
C         28.19925        54.55239         0.31661
C         27.02983        55.27056         0.18645
C         27.00873        56.60873        -0.29475
C         29.25992        12.48056        -0.62343
C         30.37466        14.67148        -1.08147
C         29.23174        13.84996        -0.52058
C         30.42744        16.09696        -0.56737
C         29.25899        16.72379        -0.02590
C         30.59418        18.88916         0.16990
C         29.41417        18.09000         0.52517
C         30.63170        20.27237         0.44271
C         29.44286        20.96839         0.91568
C         30.69895        23.14599         0.69428
C         29.50642        22.43540         1.28261
C         30.68372        24.56283         0.66688
C         29.43979        25.26283         0.70135
C         30.59124        27.48479         0.79899
C         29.46413        26.66058         0.14905
C         30.70850        28.86867         0.12442
C         29.41113        29.61438         0.28086
C         30.66989        31.74836         0.38188
C         29.40414        31.00252         0.36483
C         30.70000        33.15537         0.25730
C         29.47012        33.92535         0.44825
C         30.64114        36.05855        -0.11222
C         29.44140        35.37383         0.15714
C         30.66323        37.47265        -0.21930
C         29.41206        38.18420        -0.12071
C         30.57725        40.38936        -0.27835
C         29.35533        39.59609        -0.06843
C         30.59951        41.78432         0.22898
C         29.39476        42.36222         0.61616
C         30.65428        44.40155         1.52360
C         29.35035        43.71240         1.22599
C         30.78278        45.92392         1.52191
C         29.44860        46.67363         1.60077
C         30.57884        48.77662         0.86956
C         29.39492        48.09995         1.22219
C         30.59238        50.18201         0.62483
C         29.44927        51.00379         0.79381
C         29.42429        52.37186         0.57568
C         31.60047        16.81663        -0.72303
C         32.88936        18.94373        -0.65804
C         31.71099        18.22003        -0.41077
C         32.95896        20.33213        -0.39451
C         31.81724        21.00462         0.13769
C         32.99452        23.16527        -0.16359
C         31.84252        22.44033         0.27040
C         33.00171        24.58547        -0.11438
C         31.89997        25.28282         0.40501
C         33.22658        27.52198         0.99043
C         31.93127        26.71298         0.83840
C         33.15791        28.96927         0.70053
C         31.93025        29.64079         0.57191
C         33.17769        31.79693         0.65740
C         31.89349        31.04400         0.46061
C         33.15043        33.21028         0.10804
C         31.92881        33.85575         0.01856
C         33.18426        36.05127        -0.45610
C         31.87287        35.28677        -0.36118
C         33.14658        37.51711        -0.31790
C         31.91563        38.17738        -0.32761
C         33.18334        40.41419        -0.39817
C         31.88531        39.64986        -0.48395
C         33.18162        41.88537        -0.00434
C         31.87500        42.44789         0.47822
C         33.65081        44.80305         0.66051
C         31.84874        43.60302         1.21849
C         33.14704        46.06375         0.34715
C         31.92849        46.65160         0.85938
C         31.77794        48.01468         0.63344
C         34.15373        21.07353        -0.66403
C         35.43442        23.19585        -0.68167
C         34.19519        22.46134        -0.55983
C         35.48056        24.58282        -0.65460
C         34.15102        25.25505        -0.80262
C         35.64027        27.43984         0.20893
C         34.56415        26.87601         0.90473
C         35.61746        28.85877        -0.01666
C         34.29419        29.57630        -0.10373
C         35.68273        31.71956         0.35986
C         34.37225        31.03992         0.18004
C         35.63218        33.19793         0.02205
C         34.41436        33.90153        -0.04531
C         35.64934        36.04089        -0.18458
C         34.44340        35.32462        -0.21810
C         35.64085        37.49455        -0.21308
C         34.41003        38.22351        -0.25042
C         35.65562        40.34372        -0.12509
C         34.43142        39.63924        -0.24652
C         35.66660        41.77443        -0.02883
C         34.52836        42.55821         0.15421
C         34.64426        43.98759         0.08363
C         36.70734        25.31835        -0.54894
C         38.02767        27.41171        -0.40504
C         36.81193        26.68236        -0.21564
C         38.05543        28.81021        -0.38479
C         36.80540        29.52348        -0.25362
C         38.07666        31.72957        -0.53483
C         36.78199        30.99476        -0.38389
C         38.09998        33.17279        -0.22768
C         36.86947        33.89071        -0.12142
C         38.14531        35.99578        -0.15521
C         36.89107        35.32094        -0.14208
C         38.20844        37.50511        -0.23070
C         36.86783        38.20913        -0.16978
C         36.86465        39.60025        -0.10650
C         39.28406        29.56426        -0.50619
C         40.55175        31.70974        -0.45694
C         39.32681        30.94594        -0.51854
C         40.55053        33.07137        -0.33087
C         39.32814        33.84686        -0.21721
C         39.33109        35.26869        -0.14590
O         12.54968        40.17592        -2.06349
O         18.89168        44.27056        -1.51542
O         29.89464        43.80940         2.61905
O         18.62038        13.60661         1.80283
O         21.31473        31.54408         1.06247
O         23.92901        37.83034         1.67065
O         19.65948        13.03495        -1.65647
O         27.61885        14.12552         1.36897
O         22.64490        16.17239         2.56778
O         22.48404        24.66933        -1.31683
O         25.02387        50.57915        -0.62485
O         13.29980        23.50434        -1.21709
O         23.01845        45.38080         2.23629
O         28.86514        33.58232         1.76685
O         16.96867        38.93120        -2.14640
O         21.28692        57.60347         0.87783
O         25.10492        55.36961         1.72421
O         27.28758        46.23227         2.74643
O         14.99228        46.48985         1.38253
O         31.10198        40.11321        -1.62734
O         14.25126        21.86103         2.03808
O         33.95023        26.20960        -1.55823
O         18.65254        41.15338        -1.75813
O         13.28968        36.45461        -2.02819
O         19.29728        17.31422         2.50079
O         10.33734        31.55735         1.67464
O         23.78972         8.14246        -2.54207
O         22.52169        50.74725         2.20382
O         18.32171        23.99650         2.02452
O         37.16099        31.47932        -1.69206
O         19.68213        42.17295         1.48993
O         26.43530        20.74945         2.77410
O         28.18138        49.78510         2.56773
O         20.19074        35.92073        -2.10470
O         25.32569        15.31305        -0.65007
O         15.27468        18.59575        -0.87083
O         16.88924        26.50531         1.36944
O         13.74904        41.81843         1.10941
O         24.98137        42.59894        -1.06149
O         29.09485        18.15426         1.97250
O         24.81641        39.89573        -1.39267
O         15.09991        35.78919         1.00717
O          8.67145        35.53868        -1.59420
O         27.06141        35.24176        -1.70881
O         20.19133        33.23261        -2.13537
O         30.32407        46.48347         2.77498
O         33.00849        44.14671         1.73377
O         18.80419        39.40243         1.48510
O         24.08030        58.53990        -2.55771
O         20.91575        11.38508         1.33168
O         33.17383        41.46544        -1.41343
O         32.53585        26.94499         2.17094
O         25.23244        11.42209         1.76518
O         22.58458        13.72412         2.22871
O         32.47357        35.57438        -1.66104
O         22.22022        26.75400         1.70766
H         21.43058        26.38495         2.15769
O         18.33881        27.00730        -1.98882
H         19.13886        27.43269        -2.36297
O         23.63459        31.35829        -1.79967
H         24.43833        31.89293        -2.03474
O         30.93632        28.75207        -1.31081
H         31.87793        28.98952        -1.51302
O         28.35373        53.44008         2.41706
H         28.32886        52.56874         2.86874
O         22.80679        35.63647        -1.96726
H         22.14939        35.48796        -2.68409
O         15.73074        27.10098        -2.06170
H         14.93976        27.53745        -2.44119
O         20.43346        55.08150         1.92603
H         20.57811        56.05500         2.00174
O         27.12170        29.37471         2.10224
H         26.34985        29.76984         2.56123
O         24.96301        25.03611        -1.65838
H         24.16519        25.33625        -2.15791
O         22.95102        20.34548         2.95820
H         23.54925        19.67694         3.38027
O         16.58749        17.74109         2.41047
H         17.44032        17.50028         2.85171
O         39.08345        38.01735         0.78809
H         38.71607        37.76923         1.66091
O         20.26883        45.74374         2.13230
H         21.12320        45.52818         2.58137
O         21.32936        37.92191         1.97037
H         22.04601        38.27267         2.54307
O         26.87670        37.97877        -1.95253
H         26.93358        36.98797        -2.12388
O         21.32575        45.04576        -1.30331
H         20.65617        44.80637        -1.98590
O         36.06231        31.61581         1.78269
H         35.25168        31.83479         2.30373
O         22.55418        35.35297         1.63781
H         23.04764        35.78627         2.36700
O         33.36087        31.98668         2.12607
H         32.55634        32.44560         2.45346
O         23.48119        18.85667        -0.39768
H         22.76421        19.37149        -0.82679
O         20.78713        10.82873        -2.31648
H         20.29558        11.70743        -2.38838
O         10.60328        24.29783        -1.71738
H         11.45431        23.87498        -1.98766
O         33.86008        29.36792        -1.52304
H         34.14222        28.46191        -1.79205
O         29.20671         9.68343        -1.32844
H         28.85147         9.90068        -2.21430
O          7.13330        26.76540         0.18149
H          7.26671        26.79299        -0.78810
O         23.07964        27.21203        -1.81766
H         23.72639        27.81395        -2.24425
O         29.76401        26.52345        -1.27202
H         29.04042        26.00412        -1.68212
O         10.93919        32.86197        -1.70755
H         10.77285        33.71332        -2.16692
O         17.37179        16.98283        -1.12066
H         16.63404        17.51775        -1.50828
O         26.37756        34.16931         1.74463
H         27.16023        34.15524         2.34321
O         30.14905        27.72939         2.14205
H         30.93905        27.73205         2.73045
O         27.95169        29.03006        -1.45038
H         28.78919        28.72730        -1.87328
O         30.25950        14.70743        -2.52265
H         29.45374        15.21286        -2.75524
O         24.05385        31.21573         1.86935
H         23.08030        31.33020         1.95723
O         29.71512        22.47931         2.73554
H         28.97627        21.98729         3.15548
O         11.96696        33.95743         1.64006
H         12.81527        34.32216         1.96999
O         20.82854        22.62363        -1.19475
H         21.45871        23.26220        -1.61842
O         17.05204        48.26113        -1.85775
H         17.91439        47.85963        -2.10114
O         25.97601        32.94282        -1.70715
H         26.32079        33.83294        -2.04663
O         24.31139        18.08214         3.07515
H         24.98157        17.47697         3.45573
O         34.72210        25.78391         1.66895
H         33.89744        25.68989         2.21240
O         24.41250        46.59543        -0.94678
H         25.04703        47.25015        -1.30640
O         24.49363        43.25787         2.44664
H         24.27401        44.01157         3.04128
O         21.86228        22.87366         2.33368
H         22.29400        22.17852         2.88874
H          4.91122        31.17783         0.62229
H          4.89378        33.64526         0.54747
H          8.13693        27.19069         1.91900
H          6.18024        29.02387         0.71675
H          6.10202        35.78603         0.42863
H          7.43041        38.02516         0.22275
H          9.75995        22.61229         0.49119
H          8.53742        24.77993         0.22345
H          8.57933        40.09308        -0.04059
H          9.74933        42.29435        -0.35003
H         12.20367        18.28274         0.35090
H         10.96433        20.41885         0.63880
H         11.04119        44.47090        -0.42003
H         12.30617        46.56376        -0.62871
H         14.74040        14.01852        -0.18005
H         13.52565        16.06560         0.34860
H         13.52071        48.89289        -0.13881
H         14.81536        51.00912        -0.16077
H         17.22847         9.77699        -0.60794
H         15.97544        11.87241        -0.39213
H         16.12448        53.07887        -0.39578
H         17.40797        55.08975        -0.75001
H         19.67063         5.57112        -1.35379
H         18.44133         7.66521        -0.93358
H         18.70014        57.09471        -1.21135
H         19.93852        59.24699        -1.60470
H         23.01447         2.14729        -1.72912
H         20.87683         3.40910        -1.53833
H         23.42321        62.45571        -2.31655
H         21.26824        61.27328        -2.21696
H         25.19893         3.33229        -1.70845
H         26.50457         5.40846        -1.44941
H         26.82453        59.23564        -0.85621
H         25.53042        61.40226        -1.58681
H         27.85613         7.52921        -1.09008
H         28.66618         9.75461         0.64842
H         29.15674        55.01497         0.02995
H         27.97012        57.08982        -0.53050
H         30.16604        11.99969        -1.02350
H         31.34532        14.15939        -0.86264
H         31.53980        50.64994         0.31914
H         30.34840        52.89354         0.28259
H         32.47900        16.31425        -1.15490
H         33.76381        18.43040        -1.08384
H         33.71442        46.67921        -0.36754
H         32.63092        48.55963         0.20097
H         35.05611        20.52510        -0.97207
H         36.37300        22.62019        -0.70049
H         36.64718        42.27379        -0.02060
H         35.50562        44.42309        -0.44483
H         37.64105        24.76382        -0.73624
H         38.94938        26.85513        -0.63281
H         38.68885        37.78088        -1.21061
H         37.82358        40.13485        -0.04343
H         40.23098        29.00229        -0.51625
H         41.50783        31.16753        -0.50763
H         41.50729        33.61346        -0.29893
H         40.29068        35.80619        -0.14399
