         276
 CSIRO Nanostructure Databank - Neutral Graphene Oxide Data Set
C        -11.41066         0.59591        -0.45581
C        -10.20927         1.39405        -0.21510
C         -8.90945         0.67134        -0.50718
C         -7.73375         1.29507         0.28576
C         -6.41643         0.52656        -0.08367
C         -5.06473         1.34398         0.12108
C         -3.79854         0.84328        -0.16219
C         -2.55486         1.59474         0.05126
C         -1.28955         0.89066        -0.52689
C          0.02521         1.64304        -0.30619
C          1.31232         0.83007        -0.56045
C          2.60594         1.64029        -0.39657
C          4.00129         0.95519        -0.50349
C          5.05365         1.54208         0.47581
C          6.35153         0.78682         0.72773
C          7.49753         1.46106        -0.01672
C          8.77548         0.74300        -0.16115
C          9.96277         1.42869        -0.30614
C         11.19947         0.66399        -0.42260
C        -10.18810         2.73578         0.08268
C         -8.95797         3.51209         0.18842
C         -7.64404         2.79460        -0.03234
C         -6.42832         3.41353         0.80393
C         -5.28178         2.77949         0.06941
C         -3.59842         3.50524         1.51831
C         -2.48584         2.79530         0.71882
C         -1.20365         3.50244         0.96759
C          0.07194         2.95546         0.39362
C          1.40217         3.52742         0.91473
C          2.60466         3.05114         0.07981
C          3.98596         3.74898         0.21502
C          5.09501         2.87742         0.75313
C          6.44345         3.60198         1.01350
C          7.53643         2.95897         0.13762
C          8.85637         3.61294         0.03961
C          9.97775         2.87961        -0.22953
C         -8.89802         4.88144         0.20895
C         -7.63594         5.62154         0.25490
C         -6.43062         4.94946         0.83276
C         -5.13219         5.70766         1.03998
C         -3.81935         4.93594         0.99329
C         -2.53389         5.67489         0.74423
C         -1.24643         5.00733         1.15176
C          0.04459         5.79513         1.10067
C          1.34588         5.06476         0.98434
C          2.54523         5.78260         0.37857
C          3.82180         5.09800         0.95338
C          5.11289         5.91399         0.83839
C          6.38923         5.13815         0.79309
C          7.57136         5.78584         0.14681
C          8.90734         5.08845         0.36312
C         -7.53091         6.89847        -0.21334
C         -6.33793         7.75039         0.00169
C         -5.11694         7.19847         0.70311
C         -3.77282         7.99114         0.67245
C         -2.54153         7.12496         0.36340
C         -1.26554         7.87855         0.25940
C         -0.00567         7.27290         0.78606
C          1.27283         8.02564         0.48246
C          2.52118         7.27829         0.48963
C          3.74280         7.99270         0.11489
C          5.07147         7.34676         0.35373
C          6.31808         7.95990        -0.30722
C          7.47452         6.98834        -0.45752
C         -6.16464         8.95775        -0.84015
C         -4.98219         9.60056        -0.95950
C         -3.75678         9.17845        -0.29628
C         -2.58089         9.82836        -0.50548
C         -1.30887         9.41708         0.22027
C         -0.03162         9.91869        -0.43682
C          1.17236         9.28596        -0.31260
C          2.37211         9.70238        -1.03034
C          3.59374         9.10242        -0.86115
C          4.74558         9.35151        -1.71853
C          5.94044         8.73363        -1.55977
C        -11.40116        -0.72149        -0.79960
C        -10.11540        -1.50543        -1.03428
C         -9.08112        -0.82255        -0.09216
C         -7.77198        -1.59719         0.14917
C         -6.50644        -0.89081         0.48866
C         -5.26014        -1.69469         0.52742
C         -3.59507        -0.47357        -0.89438
C         -2.38538        -1.38753        -0.58072
C         -1.26271        -0.54034         0.08734
C          0.07464        -1.36440        -0.01530
C          1.31443        -0.49995         0.17199
C          2.59439        -1.25616         0.13669
C          3.83964        -0.65402        -0.52213
C          5.01904        -1.40341         0.08635
C          6.25722        -0.70535         0.50561
C          7.52631        -1.45603         0.20796
C          8.77357        -0.73440        -0.15526
C         10.04951        -1.49197        -0.08636
C         11.24556        -0.69369        -0.31669
C        -10.09279        -3.00401        -0.76832
C         -8.89413        -3.65998        -0.70189
C         -7.61665        -2.81718        -0.76349
C         -6.31126        -3.66760        -0.63057
C         -5.10489        -2.84239        -0.17331
C         -3.77250        -3.56127        -0.26998
C         -2.57345        -2.70637         0.18798
C         -1.32615        -3.38346         0.72821
C          0.03714        -2.62289         0.91017
C          1.28440        -3.44863         0.59909
C          2.48669        -2.77060         0.10581
C          3.77056        -3.60714        -0.04536
C          5.13202        -2.89742        -0.25167
C          6.27632        -3.59040         0.49657
C          7.57933        -2.88799         0.63441
C          8.88551        -3.68777         0.58084
C         10.06647        -2.84082         0.12510
C         -8.78163        -5.10182        -0.53879
C         -7.63267        -5.72100        -0.09600
C         -6.51038        -4.82879         0.39111
C         -5.18015        -5.55891         0.67852
C         -3.87459        -4.84854         0.52320
C         -2.60015        -5.64413         0.57809
C         -1.32338        -4.89910         0.74126
C         -0.03118        -5.65158         0.59110
C          1.29929        -4.90405         0.63721
C          2.54156        -5.69318         0.40638
C          3.74269        -5.04580         0.33470
C          5.01931        -5.80274         0.47339
C          6.31735        -5.08440         0.45032
C          7.52740        -5.71719        -0.15303
C          8.69198        -4.99960        -0.19615
C         -7.51824        -7.15172         0.02380
C         -6.37031        -7.81540         0.41226
C         -5.12410        -7.07567         0.72556
C         -3.81714        -7.80343         0.44281
C         -2.69016        -6.95956        -0.16025
C         -1.35638        -7.70126        -0.37215
C         -0.01092        -6.93811        -0.24535
C          1.14838        -7.85718         0.15318
C          2.46235        -7.19125         0.44824
C          3.71186        -7.97427         0.13402
C          5.02292        -7.25605         0.12291
C          6.18369        -7.76878        -0.64893
C          7.35096        -7.03821        -0.74322
C         -6.27892        -9.25956         0.35075
C         -5.09567        -9.93523         0.24124
C         -3.81959        -9.25674         0.12608
C         -2.65164        -9.90615        -0.18033
C         -1.36776        -9.19828        -0.40895
C         -0.07035        -9.91970        -0.45314
C          1.12708        -9.26299        -0.36708
C          2.38166        -9.86994        -0.76555
C          3.59717        -9.23569        -0.64011
C          4.82151        -9.76466        -1.20206
C          6.01149        -9.08420        -1.22423
O         -1.24432         4.11625         2.29367
O          7.09021         2.34208        -1.10307
O         -7.45770        -2.16606        -2.03215
O          1.63744        -7.77170         1.51378
O         -1.85473         7.27371        -0.93012
O         -4.18002        -0.63957        -1.94745
O          4.64111        -8.10193         1.25854
O          0.64996        -5.54113         1.84200
O          2.41402         2.76724        -1.32705
O         -7.37218        -1.40872         1.55928
O         -4.05598         3.05561         2.54779
O         -4.53641        -4.86956         1.80793
O          2.89928        -3.36375        -1.17965
O         -4.26917        -7.56293         1.80300
O          5.28896        -1.20922         1.49814
O         -2.32467        -2.78267         1.60861
O          0.59951         8.07548         1.81278
O         -3.21289         4.94168        -0.34318
O         -1.99264        -5.56209         1.88206
O         -3.54980         8.46376         1.98059
O          7.86493        -1.29411        -1.20693
O          4.53826         8.26308         1.36671
O          6.74309        -3.12540         1.79981
O          0.90172         5.54867         2.26539
O         -6.10330         7.93946         1.44752
O         -6.00366         5.40806         2.16171
O          2.12408        -0.62160         1.36213
O         -1.41518        -8.35385        -1.68825
O         -0.03539         2.90292        -1.06384
O          4.54903         1.34303        -1.73211
O          5.78903        -5.60835         1.71310
O          5.94444         5.80858         2.03836
O          0.10931        -2.22063         2.28488
H          0.02167        -3.01631         2.85215
O         -3.52705        -3.97067        -1.61961
H         -3.39295        -3.16684        -2.17205
O          3.57345         4.83834         2.33739
H          4.31297         5.23220         2.85618
O          6.91202         3.44649         2.36558
H          6.35359         4.01491         2.94092
O          0.26284        -1.93791        -1.31750
H          0.58990        -1.24081        -1.93595
O         -8.69614         0.86475        -1.91451
H         -9.24682         0.19713        -2.41446
O         -9.84519        -1.36225        -2.45443
H         -8.95025        -1.80560        -2.60876
O         -7.29315         3.00390        -1.40521
H         -7.79314         2.33679        -1.94937
O         -6.98392        -4.25996         1.62341
H         -6.19772        -4.10257         2.19805
O         -1.37985         9.91960         1.56263
H         -2.21394         9.52522         1.96595
O         -6.37846         0.33043        -1.49799
H         -6.70743        -0.59388        -1.75687
O         -8.09302         1.08185         1.65047
H         -7.53218         1.62843         2.24817
O         -9.78726        -0.84340         1.16525
H         -9.12364        -0.68171         1.87665
O         -4.86657         3.40614        -1.00426
H         -4.33035         2.83263        -1.59242
O          3.78480        -0.98874        -1.91666
H          4.15442        -0.16516        -2.36942
O          6.85814         8.97245         0.58340
H          6.13798         9.21399         1.21361
O         -6.09796        -4.27361        -1.89715
H         -6.38577        -3.58679        -2.55228
O         -1.56246        -0.27598         1.45749
H         -1.63526        -1.13309         1.95384
O         -1.47510         0.79818        -1.95184
H         -1.07035         1.59967        -2.35416
O          1.27390         0.47952        -1.97088
H          1.64363         1.24965        -2.46192
O          6.70558         0.90344         2.12529
H          6.08637         0.33258         2.63231
O          2.43288         5.65255        -1.06227
H          3.17516         5.08648        -1.42542
O          5.47117        -3.06287        -1.63522
H          4.84580        -2.48386        -2.14595
O         -3.17524        -6.58748        -1.46945
H         -2.88900        -7.28779        -2.10157
O          4.47310         4.04882        -1.12479
H          4.57484         3.14320        -1.57198
O          9.22278         5.22138         1.76178
H          8.56383         4.68647         2.26450
O          0.30332        -6.45190        -1.57379
H         -0.09959        -7.08368        -2.21690
O         -4.29503        -1.18025         1.37242
H         -4.71151        -0.54802         1.99294
O         -2.01528        -1.83118        -1.89929
H         -1.87768        -1.03301        -2.45942
O          9.20592        -4.09683         1.93466
H          8.34962        -4.18081         2.41711
O         -6.45782         2.95282         2.14716
H         -6.27365         3.73189         2.73419
O          1.58854         3.00417         2.23323
H          1.35811         3.71404         2.87774
H         12.21237        -1.21491        -0.37922
H         12.13350         1.22565        -0.57270
H         10.95050         3.38959        -0.30482
H          9.71431         5.60025        -0.21605
H          8.38504         7.42932        -0.89580
H          6.75236         8.95916        -2.26794
H          4.59430        10.02759        -2.57448
H          2.26857        10.51206        -1.76909
H         -0.08776        10.83791        -1.04198
H         -2.55493        10.71515        -1.15948
H         -4.91529        10.48867        -1.60728
H         -7.04438         9.32005        -1.39287
H         -8.40528         7.36966        -0.68851
H         -9.82425         5.47478         0.16656
H        -11.13604         3.28319         0.21089
H        -12.38109         1.10615        -0.34069
H        -12.36181        -1.23048        -0.97851
H        -11.03953        -3.56376        -0.69469
H         -9.66369        -5.71622        -0.78545
H         -8.39161        -7.75480        -0.27434
H         -7.22142        -9.82778         0.32522
H         -5.10520       -11.03135         0.14815
H         -2.66228       -10.99500        -0.34180
H         -0.09297       -10.97373        -0.77118
H          2.33364       -10.84613        -1.27241
H          4.76771       -10.75365        -1.68180
H          6.88055        -9.54757        -1.71512
H          8.20662        -7.47243        -1.28401
H          9.58353        -5.45280        -0.65837
H         11.04131        -3.35403         0.13990
