         204
 CSIRO Nanostructure Databank - Neutral Graphene Oxide Data Set
C        -11.41921         0.75063         0.19532
C        -10.35011         1.74693         0.34230
C         -8.46642         0.58741         0.24402
C         -7.41433         1.43022        -0.33251
C         -6.13760         0.74225        -0.58738
C         -4.99038         1.46731        -0.67216
C         -3.72672         0.75955        -1.10870
C         -2.47577         1.48005        -0.66965
C         -1.23340         0.74754        -0.71545
C         -0.00048         1.41859        -0.61897
C          1.24498         0.75176        -0.81958
C          2.48047         1.39697        -0.66248
C          3.73227         0.69985        -0.63267
C          4.96888         1.41595        -0.36501
C          6.17336         0.67056        -0.19974
C          7.35375         1.39022         0.30414
C          8.66648         0.63261         0.42977
C          9.91771         1.41639         0.37846
C         11.13902         0.65337         0.29402
C        -10.10931         2.99895        -0.12588
C         -8.78912         3.66372         0.08327
C         -7.52751         2.92568        -0.28893
C         -6.21967         3.62989        -0.22994
C         -5.00532         2.91038        -0.44290
C         -3.76734         3.59279        -0.34768
C         -2.53141         2.83568        -0.37937
C         -1.30374         3.55498        -0.01170
C         -0.00233         2.81762        -0.18182
C          1.22116         3.62553        -0.37881
C          2.49640         2.86751        -0.53171
C          3.71178         3.50800         0.02645
C          4.98889         2.80891        -0.12719
C          6.18384         3.54990         0.11931
C          7.40538         2.85690         0.23362
C          8.63955         3.54896         0.38333
C          9.87484         2.79788         0.42228
C         -8.71185         4.99060         0.34244
C         -7.41111         5.70317         0.61643
C         -6.18790         4.99674         0.07438
C         -4.96012         5.70855         0.04338
C         -3.73928         5.00101        -0.12592
C         -2.49432         5.72657        -0.02399
C         -1.27466         5.03148        -0.01691
C         -0.04252         5.72787         0.10950
C          1.20733         5.03903         0.06498
C          2.40720         5.72823         0.19583
C          3.67561         4.97880         0.33039
C          4.95011         5.70805         0.30760
C          6.16048         4.98879         0.25515
C          7.41185         5.69562         0.34203
C          8.62042         4.96488         0.39258
C         -7.40759         7.16991         0.26486
C         -6.22541         7.85847         0.14422
C         -4.95208         7.14906         0.13341
C         -3.74671         7.85774         0.11713
C         -2.49133         7.15398         0.11243
C         -1.27718         7.85704         0.26014
C         -0.03575         7.14869         0.28282
C          1.19594         7.83767         0.43991
C          2.42205         7.14400         0.37570
C          3.68720         7.83767         0.42451
C          4.91875         7.13027         0.35680
C          6.17710         7.83633         0.35629
C          7.37617         7.12488         0.37148
C         -6.18368         9.30618         0.03368
C         -5.00768         9.98983         0.03158
C         -3.73165         9.30755         0.11133
C         -2.53293         9.99502         0.16853
C         -1.26696         9.31344         0.31244
C         -0.07986         9.99695         0.47622
C          1.18970         9.28466         0.85833
C          2.48196         9.98123         0.51937
C          3.67527         9.28448         0.44141
C          4.95557         9.96475         0.36249
C          6.13494         9.28251         0.34556
C        -11.21602        -0.59213         0.17247
C         -9.97102        -1.39329        -0.19862
C         -8.62581        -0.71211        -0.11421
C         -7.44844        -1.45355        -0.53903
C         -6.20516        -0.71525        -1.00740
C         -4.92044        -1.43580        -0.67322
C         -3.71875        -0.71098        -0.71669
C         -2.48775        -1.40470        -0.64920
C         -1.24267        -0.69610        -0.77891
C         -0.04032        -1.41700        -0.86122
C          1.20996        -0.68437        -1.12129
C          2.53463        -1.44330        -1.07059
C          3.76828        -0.70338        -0.75997
C          4.98467        -1.44271        -0.64849
C          6.21799        -0.72399        -0.38521
C          7.47425        -1.42325        -0.29213
C          8.66911        -0.78162         0.02862
C          9.92719        -1.48834         0.02819
C         11.13859        -0.71196         0.18140
C         -9.84785        -2.80433         0.30715
C         -8.66289        -3.50493         0.08560
C         -7.45471        -2.81550        -0.39061
C         -6.21376        -3.60321        -0.74477
C         -4.92612        -2.83420        -0.52099
C         -3.70421        -3.53273        -0.39370
C         -2.47307        -2.81996        -0.49023
C         -1.22955        -3.52711        -0.46230
C         -0.00710        -2.83049        -0.68022
C          1.24157        -3.54499        -0.62321
C          2.48491        -2.87895        -0.76328
C          3.71258        -3.57633        -0.66225
C          4.95093        -2.85484        -0.72994
C          6.21522        -3.60546        -0.84007
C          7.53306        -2.84986        -0.65311
C          8.73902        -3.62344        -0.28717
C          9.93908        -2.88184        -0.05286
C         -8.59266        -4.90822         0.32227
C         -7.38880        -5.64514         0.21071
C         -6.16813        -4.98752        -0.14669
C         -4.94417        -5.66411        -0.02876
C         -3.68551        -4.96131        -0.18418
C         -2.46758        -5.63179        -0.01651
C         -1.21530        -4.92543        -0.17062
C          0.01635        -5.59655        -0.02982
C          1.23961        -4.93645        -0.28471
C          2.48630        -5.66172        -0.26428
C          3.68792        -5.00131        -0.50984
C          4.93692        -5.79483        -0.80680
C          6.22259        -5.04509        -0.58522
C          7.42302        -5.72690        -0.36564
C          8.66785        -5.00969        -0.23950
C         -7.35866        -7.03507         0.51568
C         -6.15826        -7.75211         0.51866
C         -4.92328        -7.06063         0.29325
C         -3.69028        -7.75935         0.37873
C         -2.45150        -7.05505         0.24941
C         -1.23812        -7.74084         0.40782
C          0.04160        -6.96805         0.58288
C          1.28693        -7.75743         0.27426
C          2.47196        -7.10390        -0.02170
C          3.72425        -7.83100         0.00937
C          4.93406        -7.17780        -0.21851
C          6.18830        -7.85697        -0.05489
C          7.39055        -7.15307        -0.15801
C         -6.11682        -9.16902         0.78077
C         -4.93204        -9.84688         0.82602
C         -3.67445        -9.16720         0.64503
C         -2.45008        -9.84388         0.73419
C         -1.21962        -9.14907         0.62787
C          0.03467        -9.83124         0.73128
C          1.26102        -9.17938         0.52785
C          2.50113        -9.88691         0.56625
C          3.71156        -9.23440         0.35351
C          4.97541        -9.92198         0.44858
C          6.15769        -9.26342         0.27023
O          0.12169        -6.71845         2.04599
H          0.12789        -7.59665         2.48420
O          7.03346        -3.16798        -1.99214
O         -9.32036         1.20193         1.15166
O         -3.73685         0.76656        -2.57086
H         -4.59453         0.35709        -2.84532
O         -6.28347        -3.77346        -2.21898
H         -5.54813        -4.36989        -2.47841
O          1.86749         3.51966        -1.69913
O          1.17227         9.25994         2.35238
H          1.93626         8.71308         2.63725
O          7.83647         0.88453         1.61047
O          4.88353        -6.00049        -2.27752
H          5.76170        -6.33673        -2.55776
O          1.90481        -1.07441        -2.34941
O         -7.25907         5.66017         2.08806
H         -6.44155         6.15501         2.31067
O         -0.58495         2.99108         1.15427
O         -6.25785        -0.71795        -2.47785
H         -6.30274        -1.66621        -2.74839
O        -10.18251        -1.54998        -1.66037
H         -9.38896        -2.00451        -2.01927
O          3.55076         3.97559         1.42061
O         -7.80031         2.19798        -1.54858
H         12.09739        -1.25108         0.15774
H         12.09576         1.19465         0.34429
H         10.82051         3.36201         0.42615
H          9.57245         5.51233         0.46608
H          8.32811         7.67680         0.40422
H          7.08791         9.83164         0.31646
H          4.95615        11.06486         0.34977
H          2.50192        11.08212         0.53933
H         -0.08568        11.09776         0.50149
H         -2.53783        11.09580         0.16168
H         -5.00766        11.08880        -0.02148
H         -7.13937         9.84904        -0.01392
H         -8.36035         7.72150         0.28891
H         -9.63591         5.56475         0.51411
H        -10.87680         3.54517        -0.69438
H        -12.46184         1.11129         0.21373
H        -12.12831        -1.21259         0.13148
H        -10.73769        -3.34774         0.66128
H         -9.50437        -5.43366         0.64436
H         -8.30142        -7.55027         0.75335
H         -7.06639        -9.70051         0.94100
H         -4.91990       -10.92891         1.02366
H         -2.44116       -10.92887         0.91713
H          0.02989       -10.91565         0.91787
H          2.49345       -10.96400         0.79198
H          4.97079       -10.99480         0.69203
H          7.11293        -9.79911         0.37287
H          8.34139        -7.68385        -0.00107
H          9.57752        -5.58759        -0.01649
H         10.88775        -3.42622         0.06881
