         640
 CSIRO Nanostructure Databank - Neutral Graphene Oxide Data Set
C         23.08709        27.47455         0.45778
C         23.02100        28.79680         0.21383
C         22.97726        31.70780        -0.30640
C         22.97256        33.09442        -0.10292
C         22.96348        35.97585         0.36175
C         22.97015        37.36350         0.55905
C         22.96988        40.34896         0.98776
C         23.01694        41.70289         0.95496
C         23.01800        44.65336         0.73352
C         23.02482        46.00248         0.79040
C         25.44446        24.56359         0.09490
C         24.28266        25.28566         0.31858
C         25.43029        27.33434        -0.31714
C         24.25973        26.68168         0.11632
C         25.38089        28.76606        -0.67951
C         24.03842        29.49426        -0.65986
C         25.40997        31.66947        -0.22088
C         24.16074        30.98167        -0.35001
C         25.41071        33.09278         0.00834
C         24.16295        33.80279         0.06393
C         25.39595        35.95331         0.30166
C         24.15620        35.24938         0.24914
C         25.39949        37.37764         0.41305
C         24.16264        38.07944         0.59130
C         25.48180        40.27316         0.73559
C         24.19322        39.52915         0.93402
C         25.46338        41.74761         0.59800
C         24.24491        42.46002         0.76871
C         25.47325        44.57481         0.44051
C         24.24573        43.87482         0.67717
C         25.49110        45.99330         0.40856
C         24.31122        46.76588         0.94397
C         25.36253        48.78815        -0.05068
C         24.25120        48.16397         0.40114
C         27.93797        23.07817        -0.41023
C         27.91005        24.49269        -0.32311
C         26.66258        25.21930        -0.20467
C         27.91612        27.36020        -0.40269
C         26.66413        26.63603        -0.35312
C         27.92686        28.77993        -0.37261
C         26.67909        29.53221        -0.60727
C         27.87782        31.65949        -0.14168
C         26.65249        30.98208        -0.32113
C         27.88065        33.08410         0.07758
C         26.63827        33.79260         0.14374
C         27.84716        35.95199         0.35768
C         26.63839        35.24045         0.27099
C         27.85563        37.37840         0.30927
C         26.63829        38.07710         0.31880
C         27.91794        40.26710         0.17655
C         26.60239        39.55275         0.02239
C         27.91699        41.67231         0.16985
C         26.67448        42.40809         0.32043
C         27.90187        44.50205        -0.06274
C         26.69389        43.83322         0.23458
C         27.83871        45.92941        -0.39129
C         26.63959        46.69757        -0.01768
C         27.87528        48.83286        -0.34076
C         26.63712        48.10438        -0.15210
C         27.89864        50.24887        -0.35070
C         30.37674        23.06796        -0.47447
C         29.12922        22.39005        -0.51366
C         30.37598        24.48693        -0.36611
C         29.14070        25.20468        -0.34719
C         30.38125        27.35536        -0.27359
C         29.14335        26.64223        -0.33281
C         30.37278        28.78586        -0.19768
C         29.13571        29.49795        -0.23595
C         30.34496        31.64477        -0.05314
C         29.12311        30.93968        -0.15596
C         30.34185        33.08085         0.07560
C         29.11407        33.77248         0.19286
C         30.36798        35.96125         0.25863
C         29.12395        35.21057         0.65077
C         30.34968        37.37952         0.18827
C         29.11623        38.10369         0.22609
C         30.37273        40.24117         0.04527
C         29.13043        39.52397         0.15010
C         30.37568        41.66201        -0.04998
C         29.14896        42.39067         0.02055
C         30.39248        44.52582        -0.25593
C         29.14515        43.81005        -0.12415
C         30.41295        45.96329        -0.34401
C         29.15290        46.69310        -0.56637
C         30.35203        48.85730        -0.38535
C         29.12369        48.15055        -0.39426
C         30.33179        50.27218        -0.42730
C         29.09874        50.94206        -0.42977
C         32.90952        20.28714        -0.73274
C         31.69916        20.94795        -0.72577
C         32.84911        23.06677        -0.33692
C         31.62743        22.34982        -0.51568
C         32.83395        24.49505        -0.29813
C         31.62318        25.20441        -0.32431
C         32.85046        27.36821        -0.18328
C         31.61581        26.64768        -0.27428
C         32.83743        28.79886        -0.08247
C         31.60011        29.50433        -0.10328
C         32.81624        31.64587         0.03419
C         31.58838        30.93363        -0.03947
C         32.81020        33.08304         0.03692
C         31.58266        33.79458         0.08379
C         32.79199        35.96864        -0.00911
C         31.57554        35.25019         0.10891
C         32.80727        37.37156         0.01425
C         31.58371        38.09590         0.06337
C         32.83138        40.23312        -0.17402
C         31.59802        39.52206        -0.00700
C         32.82329        41.63340        -0.31268
C         31.60945        42.36319        -0.23589
C         32.87346        44.50098        -0.30063
C         31.61660        43.79951        -0.28263
C         32.87373        45.96004         0.10992
C         31.60123        46.69961        -0.24780
C         32.84295        48.84558        -0.34524
C         31.61209        48.12464        -0.34398
C         32.86506        50.25999        -0.42401
C         31.60130        51.04549        -0.68170
C         32.85495        53.05064         0.07820
C         31.67222        52.40634        -0.03159
C         35.51445        18.87595        -0.70742
C         35.37602        20.24977        -0.27677
C         34.12448        20.96896        -0.42797
C         35.26217        23.08474         0.39103
C         34.07954        22.35857        -0.20976
C         35.35168        24.52524        -0.01469
C         34.12974        25.22231        -0.53685
C         35.31021        27.37904        -0.05573
C         34.08908        26.68330        -0.18663
C         35.30623        28.81031         0.03060
C         34.06686        29.51284         0.00471
C         35.29061        31.65341         0.12620
C         34.05705        30.94267         0.05722
C         35.27311        33.08838         0.13185
C         34.05748        33.77207         0.03629
C         35.22611        35.93387         0.50717
C         34.09562        35.25121        -0.24843
C         35.28178        37.39841         0.15626
C         34.06946        38.09725        -0.01621
C         35.33354        40.20355        -0.17732
C         34.08177        39.50601        -0.15145
C         35.35295        41.63807        -0.30994
C         34.08496        42.33922        -0.73449
C         35.33536        44.49648        -0.40162
C         34.07764        43.81384        -0.42860
C         35.31730        45.94929        -0.78471
C         34.10636        46.70456        -0.30924
C         35.33598        48.79775        -0.48920
C         34.10290        48.09724        -0.35095
C         35.33308        50.25425        -0.64067
C         34.07677        50.99321        -0.44740
C         35.35302        53.12850        -0.20092
C         34.11510        52.40070        -0.24951
C         35.39412        54.55149        -0.07181
C         37.69705        18.62690         0.46325
C         36.63351        18.14360        -0.48703
C         37.73951        20.15543         0.51244
C         36.52751        20.93104         0.17790
C         37.80030        23.05548         0.28428
C         36.56963        22.34490         0.27258
C         37.80322        24.50694         0.23765
C         36.54462        25.21707         0.08075
C         37.77233        27.37275         0.08061
C         36.55243        26.66385        -0.00750
C         37.77827        28.80696         0.11076
C         36.53605        29.52376         0.10023
C         37.76999        31.67029         0.18689
C         36.52815        30.94975         0.13690
C         37.77046        33.08920         0.24772
C         36.52959        33.81905         0.22153
C         37.75354        35.94805         0.47253
C         36.53682        35.20910         0.32407
C         37.73239        37.35519         0.43809
C         36.51280        38.08384         0.17840
C         37.85944        40.18116        -0.23664
C         36.53936        39.48970        -0.01226
C         37.80166        41.67015        -0.03029
C         36.55285        42.35460        -0.17994
C         37.79462        44.51745        -0.12377
C         36.54448        43.80709        -0.25542
C         37.80576        45.96927        -0.27188
C         36.59978        46.66971        -0.52646
C         37.80519        48.80874        -0.48449
C         36.59114        48.10187        -0.50905
C         37.82771        50.23499        -0.02741
C         36.63054        51.00468        -0.52373
C         37.83818        53.12514        -0.10716
C         36.61266        52.45430        -0.24215
C         37.85202        54.56101        -0.02910
C         36.58618        55.23209        -0.01933
C         40.36043        15.91087         0.14287
C         39.13073        16.57945         0.22542
C         40.27095        18.73340         0.20181
C         39.05855        17.97200         0.26505
C         40.27260        20.14606         0.16585
C         39.06408        20.91126         0.43215
C         40.27435        23.04165         0.02368
C         39.03629        22.36039         0.19368
C         40.27181        24.49730         0.07036
C         39.00938        25.21082         0.19562
C         40.22384        27.37541         0.09849
C         39.01557        26.65686         0.13422
C         40.23672        28.78932         0.10982
C         39.00811        29.51080         0.16408
C         40.22222        31.66425         0.32953
C         39.00941        30.95726         0.22481
C         40.23372        33.08152         0.38473
C         38.99813        33.79920         0.37276
C         40.22817        35.89830         0.70721
C         39.00471        35.22059         0.53547
C         40.22357        37.32632         1.05470
C         38.93108        38.11754         0.81183
C         40.21908        40.25253         0.56191
C         39.03476        39.54735         0.47288
C         40.26086        41.67423         0.27640
C         39.00556        42.37397         0.09856
C         40.24768        44.51858         0.33628
C         38.98237        43.81246         0.08479
C         40.25497        46.03962         0.16185
C         39.01770        46.67947        -0.25221
C         40.31730        48.82580        -0.41129
C         39.07072        48.07868        -0.80644
C         40.32371        50.24667        -0.35794
C         39.10803        50.97879        -0.28528
C         40.34161        53.07483        -0.15825
C         39.10492        52.38414        -0.18486
C         40.36738        54.52222         0.24417
C         39.08148        55.27091        -0.02032
C         40.35645        57.35607        -0.16947
C         39.15234        56.68653        -0.09382
C         42.85696        15.96055         0.17921
C         41.56488        16.63456         0.14160
C         42.76160        18.80744         0.28608
C         41.52952        18.04439         0.15809
C         42.75383        20.16302         0.13124
C         41.49789        20.85449        -0.33439
C         42.74176        23.02339        -0.19162
C         41.49471        22.33672        -0.06556
C         42.67331        24.46431        -0.49399
C         41.44497        25.19028        -0.13998
C         42.63654        27.38727        -0.62485
C         41.54879        26.65833         0.18575
C         42.68229        28.83671        -0.19964
C         41.50424        29.49311         0.10123
C         42.70755        31.70690         0.09784
C         41.51373        30.92252         0.57941
C         42.71682        33.09031         0.20691
C         41.47390        33.80731         0.42090
C         42.72184        35.94618         0.58801
C         41.46975        35.20850         0.57106
C         42.75071        37.34468         0.74668
C         41.51604        38.07574         1.07362
C         42.76461        40.25089         0.51726
C         41.50154        39.58824         0.91223
C         42.75192        41.65262         0.28472
C         41.49658        42.36516         0.25026
C         42.72607        44.50584         0.03651
C         41.52870        43.80109         0.17394
C         42.74125        45.96349        -0.07871
C         41.53809        46.70064        -0.09851
C         42.77826        48.81650        -0.33031
C         41.53441        48.11276        -0.29546
C         42.79678        50.23645        -0.41759
C         41.56690        50.95727        -0.36776
C         42.82552        53.08602        -0.38156
C         41.56772        52.37978        -0.29699
C         42.83024        54.52404        -0.37247
C         41.61615        55.24137        -0.20079
C         42.82468        57.34486        -0.48330
C         41.60397        56.64731        -0.26840
C         43.99535        16.62414         0.45265
C         45.27627        18.83148         0.28579
C         44.01942        18.10096         0.75945
C         45.25063        20.19978         0.19055
C         43.98391        20.96828         0.46637
C         45.22542        23.09257        -0.26005
C         43.98057        22.37520        -0.10028
C         45.23287        24.49760        -0.44507
C         43.98213        25.23624        -0.63877
C         45.17135        27.38640        -0.37583
C         43.97552        26.69423        -0.48099
C         45.16719        28.84432        -0.31962
C         43.94679        29.52077        -0.24472
C         45.24703        31.75355        -0.29425
C         43.90153        30.98715        -0.32325
C         45.20219        33.15431         0.12226
C         43.96636        33.82638         0.20623
C         45.18405        35.93166         0.57522
C         43.95083        35.23311         0.44314
C         45.18840        37.36443         0.58250
C         43.97055        38.07606         0.62284
C         45.20459        40.18739         0.17958
C         43.96952        39.51811         0.48826
C         45.21646        41.63237         0.02392
C         43.97994        42.35425         0.11951
C         45.19888        44.46387        -0.15782
C         43.98134        43.78155        -0.01710
C         45.22436        45.91568        -0.55017
C         43.95969        46.66056        -0.24972
C         45.23971        48.77992        -0.42152
C         43.99250        48.07426        -0.31825
C         45.24320        50.17509        -0.60494
C         44.03837        50.92849        -0.55152
C         45.26552        53.09632        -0.70276
C         44.04062        52.37428        -0.56795
C         45.28873        54.50358        -0.68581
C         44.05436        55.23874        -0.55415
C         44.01443        56.65917        -0.60066
C         47.70443        18.77304        -0.08451
C         46.51874        18.12553         0.05030
C         47.80963        20.21894         0.15458
C         46.49949        20.98169         0.20098
C         47.70473        23.09573        -0.36068
C         46.49087        22.41690        -0.15470
C         47.68839        24.52646        -0.49272
C         46.44946        25.23585        -0.42880
C         47.65330        27.39332        -0.38776
C         46.42842        26.66983        -0.40623
C         47.64815        28.82149        -0.28946
C         46.43563        29.55354        -0.27085
C         47.68643        31.68994         0.14851
C         46.47348        30.97469        -0.13665
C         47.67032        33.08559         0.42578
C         46.42415        33.82178         0.42841
C         47.63551        35.93693         1.09953
C         46.40158        35.20929         0.65037
C         47.65291        37.36629         0.62176
C         46.43958        38.06337         0.43209
C         47.65836        40.11096        -0.31828
C         46.40226        39.45445         0.10161
C         47.67499        41.60770        -0.62573
C         46.42359        42.33060        -0.17134
C         47.66740        44.49170        -0.18127
C         46.43712        43.75575        -0.19901
C         47.65622        45.89376         0.00040
C         46.46341        46.64348        -0.09413
C         47.68951        48.79408        -0.09112
C         46.48344        48.06363        -0.19307
C         47.83096        50.08303        -0.86572
C         46.51253        50.85900        -0.94939
C         47.81729        53.07421        -0.83200
C         46.52574        52.36244        -0.96892
C         47.75149        54.49589        -0.83211
C         46.55491        55.17460        -0.80136
C         50.27491        20.30629        -0.18985
C         49.04151        20.97392        -0.17955
C         50.20712        23.08209        -0.56377
C         48.98943        22.37829        -0.36653
C         50.13702        24.50467        -1.06960
C         48.90273        25.26746        -0.61565
C         50.15252        27.38523        -0.25732
C         48.88404        26.65877        -0.52042
C         50.15888        28.85004        -0.01530
C         48.93259        29.60111        -0.45843
C         50.15350        31.67599         0.29092
C         48.93028        31.00563         0.08280
C         50.15385        33.08040         0.54274
C         48.90891        33.78444         0.61416
C         50.13244        35.89746         0.83799
C         48.90889        35.18972         0.80060
C         50.10983        37.33720         0.71212
C         48.90671        38.01377         0.51055
C         50.17797        40.17637         0.17687
C         48.94137        39.39367        -0.02268
C         50.09897        41.63116         0.11869
C         48.95932        42.30946        -0.19550
C         50.20459        44.52014         0.09583
C         48.98719        43.80406        -0.46128
C         50.17658        45.93780         0.30126
C         48.88655        46.59132         0.41423
C         50.17291        48.92937         0.61100
C         48.86205        48.16872         0.46444
C         50.19173        50.28762        -0.05198
C         49.02828        50.92771        -0.44855
C         50.28090        53.04639        -0.53408
C         49.02607        52.35731        -0.65693
C         51.46093        21.01812        -0.31652
C         52.77751        23.11745        -0.44041
C         51.44083        22.40739        -0.51415
C         52.71431        24.60657        -0.68344
C         51.44432        25.28490        -0.92944
C         52.69781        27.45626        -0.26592
C         51.44640        26.76568        -0.62870
C         52.66975        28.85873         0.01542
C         51.44762        29.58395         0.02930
C         52.65516        31.66198         0.52919
C         51.42556        30.96947         0.24822
C         52.64582        33.08046         0.75266
C         51.39208        33.78591         0.72928
C         52.60922        35.90446         1.32955
C         51.36355        35.19232         0.86550
C         52.59746        37.41144         1.04495
C         51.39964        38.00518         0.32280
C         52.62901        40.23250         0.38157
C         51.35968        39.51325         0.40282
C         52.60803        41.61318         0.26265
C         51.33514        42.34777         0.60486
C         52.65403        44.52794         0.66838
C         51.36800        43.82254         0.32195
C         52.64446        45.99718         0.36580
C         51.40464        46.68910         0.37923
C         52.63975        48.80128         0.21049
C         51.41516        48.10860         0.32619
C         52.64794        50.25827         0.21656
C         51.45235        50.98173         0.01753
C         51.44540        52.39029        -0.24165
C         55.03633        23.24220        -1.38762
C         53.88439        22.55787        -1.31654
C         55.15901        24.55143        -0.67709
C         53.88672        25.32367        -0.58580
C         55.15279        27.46324        -0.19176
C         53.90980        26.75921        -0.38732
C         55.14035        28.83536         0.12840
C         53.89889        29.55502         0.24853
C         55.10884        31.58799         1.12935
C         53.86987        30.93323         0.56796
C         55.14686        33.09400         0.90949
C         53.89261        33.80448         0.86149
C         55.12049        35.94579         0.85842
C         53.89785        35.21391         0.93209
C         55.14434        37.36910         0.78435
C         53.89056        38.13319         0.84041
C         55.10442        40.21613         0.22648
C         53.87665        39.52788         0.37243
C         55.12184        41.62562         0.02180
C         53.83905        42.33638        -0.04462
C         55.14414        44.54360         0.09360
C         53.84443        43.84404         0.02054
C         55.13453        45.94459         0.13339
C         53.86989        46.68034         0.19356
C         55.11985        48.84613        -0.27304
C         53.86284        48.08768         0.08753
C         55.09336        50.23388         0.31966
C         53.92198        50.90637         0.43139
C         57.68598        24.80449        -1.24231
C         56.44668        25.30505        -0.59119
C         57.61456        27.43887        -0.14961
C         56.41292        26.77026        -0.31162
C         57.64411        28.84715         0.13251
C         56.38780        29.55128         0.30816
C         57.64551        31.54003         1.01708
C         56.37917        30.88021         0.70994
C         57.63440        33.08867         1.17477
C         56.34476        33.79599         0.97120
C         57.58464        35.94210         0.72410
C         56.37090        35.23178         0.83713
C         57.58139        37.34435         0.48988
C         56.34344        38.06890         0.52285
C         57.56746        40.19083         0.14159
C         56.34631        39.49101         0.30407
C         57.57874        41.62459         0.03312
C         56.33897        42.34923         0.00790
C         57.59752        44.48797         0.01752
C         56.35222        43.78995         0.01232
C         57.60158        45.91939         0.03769
C         56.37755        46.65958         0.05992
C         57.63803        48.73615        -0.10270
C         56.40317        48.07507        -0.03685
C         58.83904        25.46295        -1.06812
C         60.12219        27.47834        -0.30869
C         58.89913        26.63184        -0.10850
C         60.10000        28.81013        -0.10462
C         58.87744        29.52105         0.23397
C         60.08705        31.64450         0.73770
C         58.91520        30.89799         0.64219
C         60.06950        33.04996         0.91017
C         58.90020        33.78065         0.96165
C         60.02247        35.92801         0.19635
C         58.92264        35.29157         1.00932
C         59.97979        37.24789        -0.08377
C         58.79621        38.04241         0.19532
C         60.01830        40.19410        -0.05975
C         58.80196        39.45513         0.08598
C         60.02423        41.56444        -0.09213
C         58.81458        42.32777        -0.03236
C         60.05258        44.50500        -0.04246
C         58.83005        43.76458        -0.02787
C         60.06180        45.87732        -0.03149
C         58.84155        46.62223        -0.00644
C         58.83867        48.03194        -0.05564
O         26.09027        29.11394        -1.91658
O         57.64459        32.19128         2.33820
O         39.36710        37.70907         2.16374
O         50.07473        27.93029         1.11980
O         43.20097        24.80039        -1.83864
O         48.38498        39.40021        -1.40392
O         53.12558        38.13814         2.17489
O         55.97131        24.48567         0.55920
O         38.39069        20.58926         1.73283
O         25.13511        39.79114         2.06022
O         28.37417        46.23383        -1.72538
O         53.61954        43.21541        -1.26160
O         36.13572        50.67262        -1.84401
O         41.61825        38.96235         2.23335
O         51.50863        26.28671        -2.01692
O         46.42231        51.56516        -2.23766
O         40.20293        45.40421         1.49814
O         48.64235        47.35022         1.65436
O         44.52328        31.50044        -1.54618
O         47.26113        20.68376         1.44022
O         24.52845        46.89985         2.40330
H         24.54802        45.99133         2.77334
O         34.40319        35.38828        -1.67046
H         33.70995        34.91466        -2.17583
O         47.62341        41.72926        -2.09102
H         48.05421        40.91038        -2.44082
O         34.96307        23.11705         1.84869
H         35.09131        22.20658         2.19229
O         52.56389        35.75101         2.78446
H         52.97521        36.56576         3.16291
O         55.07051        49.03487        -1.73554
H         54.22523        49.48845        -1.94121
O         32.91323        45.94635         1.58945
H         32.12350        45.45172         1.89627
O         34.28447        25.19663        -2.02199
H         33.54148        25.71667        -2.39754
O         53.19962        22.91963         0.94371
H         54.08589        23.32813         1.05890
O         37.24566        18.21151         1.79039
H         37.75828        18.75269         2.43348
O         51.63581        37.66817        -1.08772
H         50.85160        37.96180        -1.60025
O         50.28834        49.26392         2.03689
H         49.86979        48.51749         2.52771
O         26.25436        39.66333        -1.40581
H         26.98630        39.26618        -1.92358
O         49.11954        29.73807        -1.91644
H         48.35274        30.24014        -2.26706
O         51.26184        42.23176         2.07507
H         51.96394        42.83084         2.43715
O         37.66080        50.20367         1.43741
H         38.44904        49.76440         1.82197
O         39.14602        47.96240        -2.28897
H         38.25651        47.69508        -2.60717
O         58.99881        26.05734         1.23291
H         58.18687        25.52632         1.38532
O         43.96243        21.12261         1.93930
H         44.85077        21.44498         2.20950
O         59.22105        35.61407         2.41514
H         59.22451        36.59180         2.49446
O         41.99438        26.70880         1.57832
H         41.25041        26.42119         2.14827
O         40.47102        54.48728         1.73100
H         40.49811        55.42045         2.03408
O         29.18342        35.13753         2.13262
H         28.36958        34.67923         2.43291
O         47.55239        36.00681         2.57933
H         47.67073        35.09603         2.92388
O         23.49852        29.40581        -2.01112
H         24.27052        29.48384        -2.61804
O         34.90302        35.85008         1.92634
H         35.62659        36.28111         2.42806
O         52.89528        44.38907         2.12808
H         52.34454        45.06352         2.58115
O         35.15919        45.92306        -2.27118
H         34.50213        45.22344        -2.48350
O         41.47129        20.73986        -1.81940
H         41.55950        19.78724        -2.03777
O         55.02207        31.40807         2.58449
H         55.88867        31.71599         2.94960
O         42.27454        27.36104        -2.02675
H         42.47338        26.44960        -2.35835
O         49.92789        24.32969        -2.50892
H         50.21311        25.17207        -2.93448
O         49.14360        43.94192        -1.91687
H         48.55904        43.24977        -2.32459
O         41.65000        30.83987         2.04888
H         41.56686        31.75125         2.40278
O         44.05297        18.22398         2.21368
H         43.99050        19.19026         2.41479
O         31.58778        51.29776        -2.13583
H         32.44998        51.70617        -2.36704
O         45.30758        45.90335        -2.03129
H         46.15146        45.46260        -2.27130
O         38.15108        39.99024        -1.68255
H         37.45544        40.46910        -2.18247
O         34.08924        42.26622        -2.22263
H         33.96983        41.32243        -2.46431
O         48.15730        49.66066        -2.22730
H         47.74626        50.32841        -2.82758
H         22.27287        26.96931         0.99941
H         22.13331        29.36399         0.52970
H         22.01878        31.19260        -0.45611
H         22.00552        33.61336        -0.08965
H         21.99290        35.46384         0.33448
H         22.00971        37.87851         0.69737
H         21.99268        39.84928         1.05668
H         22.06906        42.25356         1.02684
H         22.05361        44.12766         0.69722
H         22.07737        46.56052         0.83219
H         25.42526        23.47381         0.22851
H         23.36488        24.77088         0.63621
H         25.29097        49.83378        -0.38209
H         23.29325        48.70220         0.45577
H         26.99762        22.51115        -0.42308
H         26.96085        50.81865        -0.32279
H         29.10134        21.29564        -0.59800
H         29.07366        52.03807        -0.50069
H         32.92184        19.20317        -0.90818
H         30.78226        20.36979        -0.90220
H         32.87424        54.07243         0.48298
H         30.74352        52.92456         0.24743
H         34.70789        18.43978        -1.31450
H         34.45827        55.12622        -0.05057
H         36.70851        17.12246        -0.88827
H         36.55735        56.32787         0.05124
H         40.38558        14.81208         0.12670
H         38.20346        15.99134         0.27642
H         40.36912        58.45329        -0.23548
H         38.22592        57.27665        -0.13385
H         42.87227        14.86981         0.03112
H         42.81081        58.44262        -0.54230
H         44.93001        16.05540         0.56066
H         44.93975        57.23126        -0.74843
H         48.59906        18.21162        -0.38949
H         46.49329        17.03594        -0.08992
H         48.67906        55.08404        -0.83881
H         46.58398        56.27184        -0.80807
H         50.31355        19.22045        -0.02932
H         50.32001        54.12913        -0.71252
H         52.42401        20.49461        -0.24407
H         52.38747        52.95485        -0.20501
H         55.89566        22.84805        -1.95018
H         53.76228        21.58912        -1.82367
H         56.03896        50.75486         0.52726
H         53.93109        51.96025         0.74753
H         57.63944        23.90056        -1.86775
H         57.66950        49.82893        -0.21268
H         59.76885        25.10686        -1.53735
H         61.06528        26.96983        -0.55889
H         61.03143        29.38438        -0.20741
H         61.06153        31.16509         0.57624
H         61.03596        33.57287         0.89185
H         60.91820        35.34460        -0.05974
H         60.82971        37.72273        -0.59458
H         60.97567        39.65760        -0.10433
H         60.99015        42.08013        -0.17191
H         61.01303        43.97343        -0.06546
H         61.01631        46.42294        -0.05203
H         59.79512        48.57215        -0.10233
