         276
 CSIRO Nanostructure Databank - Neutral Graphene Oxide Data Set
C        -11.17676         0.70479        -0.05447
C        -10.07478         1.49296        -0.73114
C         -8.74945         0.74440        -0.68563
C         -7.43435         1.47324        -0.53510
C         -6.25919         0.67341        -0.07032
C         -5.06543         1.38637         0.47087
C         -3.74216         0.66762         0.34252
C         -2.49424         1.46703         0.13720
C         -1.21046         0.72465         0.31809
C         -0.04786         1.42887         1.00389
C          1.25463         0.68352         0.71051
C          2.47998         1.50385         0.31997
C          3.79124         0.74211         0.44829
C          4.97835         1.40194         0.45209
C          6.25729         0.69481         0.18408
C          7.45573         1.45948        -0.30272
C          8.34956         0.70218        -1.20711
C         10.22272         1.66416        -0.69927
C         11.07985         0.67735        -0.14136
C         -9.94107         2.93790        -0.29077
C         -8.77643         3.63313        -0.26660
C         -7.40632         3.00090        -0.47598
C         -6.37397         3.60683         0.47601
C         -5.08613         2.88461         0.69045
C         -3.73605         3.60062         0.94246
C         -2.60971         2.99547         0.08474
C         -1.24267         3.67904         0.30819
C          0.01339         2.91366         0.61702
C          1.23121         3.62173         1.16651
C          2.51991         2.85239         1.05446
C          3.83487         3.59680         1.16269
C          5.16246         2.82740         0.93443
C          6.22839         3.64419         0.18145
C          7.46691         2.96031        -0.35515
C          8.78766         3.66651        -0.27277
C          9.99898         2.99640        -0.19473
C         -8.75014         5.09641        -0.21186
C         -7.60794         5.80036        -0.00533
C         -6.37824         5.10870         0.46933
C         -5.06108         5.82323         0.49048
C         -3.76048         5.10572         0.63371
C         -2.60285         5.83207         0.61338
C         -1.26592         5.18906         0.48168
C         -0.00787         5.92243         0.87155
C          1.15812         5.13115         1.49979
C          2.50625         5.88741         1.30413
C          3.80338         5.10109         1.16788
C          4.99347         5.81093         0.57097
C          6.35414         5.10341         0.63839
C          7.44355         5.84040        -0.18749
C          8.81616         5.17126         0.00991
C         -7.53474         7.31609        -0.09033
C         -6.26914         7.67044        -0.91419
C         -5.00244         7.11971        -0.26561
C         -3.77266         7.92750        -0.07065
C         -2.68959         7.34800         0.84487
C         -1.34925         8.08034         0.71645
C         -0.09431         7.39503         1.29734
C          1.23874         8.25375         1.01210
C          2.52094         7.38347         1.11359
C          3.81064         8.15955         0.80075
C          4.97478         7.28384         0.36393
C          6.25956         8.01135         0.13551
C          7.43854         7.33529         0.05590
C         -6.11742         9.12874        -1.28154
C         -5.00560         9.86065        -1.13242
C         -3.79453         9.45241        -0.32379
C         -2.46865         9.64791        -1.00945
C         -1.26969         9.28236        -0.31532
C          0.06736         9.52493        -0.85785
C          1.21763         9.05798        -0.28717
C          2.47213         9.58968        -0.77736
C          3.68035         9.23969        -0.25205
C          4.91563         9.93924        -0.54766
C          6.13208         9.41337        -0.22419
C        -11.14409        -0.64026         0.03979
C         -9.93785        -1.42010        -0.26000
C         -8.75420        -0.70748        -0.42943
C         -7.47643        -1.43849        -0.73394
C         -6.24562        -0.68723        -0.19916
C         -5.03990        -1.45705         0.27213
C         -3.75556        -0.77757         0.19095
C         -2.46338        -1.48084        -0.11967
C         -1.28839        -0.75950         0.54521
C          0.01530        -1.47305         0.74607
C          1.24776        -0.66858         0.55106
C          2.41735        -1.33988        -0.17390
C          3.73370        -0.77831         0.47621
C          4.89705        -1.44333        -0.23033
C          6.16939        -0.71154        -0.32400
C          7.45973        -1.45644        -0.46527
C          8.39975        -0.64236        -1.26464
C         10.29747        -1.69244        -0.88574
C         11.14989        -0.72449        -0.23094
C         -9.96333        -2.85168        -0.33829
C         -8.78924        -3.63434        -0.44917
C         -7.50114        -2.86655        -0.16263
C         -6.13641        -3.53509        -0.56632
C         -5.04579        -2.98723         0.42036
C         -3.68365        -3.66469         0.75262
C         -2.45449        -2.98679         0.16029
C         -1.17687        -3.71027         0.43683
C          0.13272        -2.99554         0.76003
C          1.28286        -3.59934        -0.01036
C          2.42411        -2.88966        -0.19637
C          3.69581        -3.64900        -0.61276
C          4.93899        -2.93562        -0.09625
C          6.24838        -3.65893         0.02152
C          7.55026        -2.93089        -0.25382
C          8.73775        -3.69082        -0.92503
C         10.02794        -2.98086        -0.48019
C         -8.79784        -5.03770        -0.33023
C         -7.57275        -5.80389        -0.30145
C         -6.50200        -4.99492        -0.99236
C         -4.88633        -5.88593         0.69664
C         -3.64031        -5.14620         0.48274
C         -2.48436        -5.87197         0.56123
C         -1.15470        -5.19368         0.80528
C         -0.09913        -5.82286        -0.12654
C          1.15546        -5.03898        -0.43337
C          2.42317        -5.81408        -0.68613
C          3.61925        -5.11198        -0.04379
C          4.93436        -5.90125        -0.10693
C          6.26723        -5.16514        -0.05081
C          7.51116        -5.87276        -0.44266
C          8.69246        -5.17830        -0.63810
C         -7.49663        -7.13904         0.05591
C         -6.24523        -7.94960         0.43426
C         -4.95809        -7.23872         0.01144
C         -3.66893        -8.00366         0.24113
C         -2.50676        -7.33053         0.46851
C         -1.17753        -8.05135         0.64470
C         -0.10312        -7.31823        -0.18122
C          1.14377        -8.07804        -0.53783
C          2.41008        -7.31884        -0.84072
C          3.74543        -8.06011        -0.98118
C          4.96285        -7.30687        -0.50378
C          6.19509        -7.99321        -0.48033
C          7.42872        -7.30040        -0.45362
C         -6.17677        -9.41393         0.02410
C         -5.01740       -10.08114        -0.12827
C         -3.66493        -9.41284        -0.29707
C         -2.40923       -10.17772         0.06623
C         -1.22708        -9.52673         0.26188
C          0.07465       -10.18495         0.21952
C          1.22222        -9.50730        -0.12260
C          2.53044       -10.12921        -0.12442
C          3.70159        -9.47278        -0.41478
C          4.98764       -10.13812        -0.35989
C          6.15914        -9.45150        -0.47964
O         -6.26827        -5.27862        -2.15465
O         -0.80148        -8.00649         2.00491
O          1.35437         9.20244         2.03064
O          4.00394         4.35959         2.40361
O          5.70346        -5.75117         1.15677
O         -5.72675        -5.44496         1.48021
O         -6.09536         3.05452         1.77520
O         -0.35023         5.80734        -0.52210
O          7.40078         0.90635         1.06283
O          2.38161        -0.89733        -1.49340
O          9.48738        -1.21039        -1.95723
O         -3.91500         7.12056        -1.26511
O          2.65841         6.80155         2.43477
O         -5.88715         5.76861         1.69837
O          1.78536         2.86526         2.30648
O         -5.38860        -2.17210         1.53549
O         -1.66292         1.06795        -1.00570
O          6.38114         3.43801        -1.23178
O          5.29478        -0.86064        -1.49408
O          5.48478        -3.25948         1.21708
O          1.72976        -5.16859        -1.78458
O         -0.67558        -6.53111        -1.26506
O         -4.44504         0.84345         1.66993
O          1.53601        -7.79410        -1.91747
O          4.64138         6.35877        -0.74488
O          9.41188         1.39902        -1.81883
O         -1.39635         9.42488         1.16341
O         -0.30649         3.26819        -0.74540
O          7.96426        -2.02047         0.80325
O         -7.90612         1.07107        -1.87833
O         -1.73460        -3.64687        -0.92221
O         -0.87727        -1.11931         1.87604
O          0.83873         5.16999         2.89856
H          1.61936         4.84062         3.39433
O          2.37252         1.77432        -1.09449
H          2.34245         0.86760        -1.53383
O         -3.91326        10.13847         0.92180
H         -3.08288         9.99991         1.44050
O         -7.44498        -1.52827        -2.17523
H         -7.48335        -0.60649        -2.52437
O         -7.58372        -2.81125         1.27721
H         -8.47878        -2.50182         1.52674
O          8.55986        -3.62568        -2.35485
H          8.90292        -2.75376        -2.66988
O          6.77453         5.12982         2.01631
H          6.21360         4.48681         2.52153
O         -6.91894         3.45873        -1.76361
H         -7.36423         2.91980        -2.45545
O          3.88428        -3.68803        -2.03012
H          3.01081        -3.87425        -2.44862
O         -6.43955         6.94861        -2.15803
H         -5.56771         6.93957        -2.61176
O          3.26806        -5.02669         1.35107
H          4.10730        -4.91133         1.85901
O          7.17586         5.74119        -1.60008
H          6.23132         5.99087        -1.74668
O         -6.25529        -7.98383         1.88615
H         -7.07213        -8.43517         2.18287
O         -0.38930         1.37763         2.40180
H          0.38503         1.70318         2.91536
O          9.35033         5.41583         1.31019
H          8.61575         5.29417         1.96022
O         -3.38925         3.44257         2.32004
H         -4.21501         3.50425         2.84947
O         -3.10183         7.55407         2.20937
H         -2.29653         7.46575         2.77884
O          5.75196         2.65740         2.25547
H          5.11614         2.17198         2.82334
O         -3.48990        -3.51050         2.17650
H         -4.26467        -3.91201         2.62847
O          3.98385        -8.22500        -2.41355
H          3.09370        -8.33168        -2.82777
O          0.48014        -3.29981         2.13199
H         -0.21840        -2.92106         2.71064
O         -7.49397         7.90577         1.20442
H         -6.90940         7.35378         1.77755
O         -5.59389        -2.98454        -1.77720
H         -5.73783        -3.65078        -2.49862
O        -10.48690         1.57091        -2.12779
H         -9.66691         1.66193        -2.66318
O         -3.00630         3.30277        -1.26671
H         -2.27519         2.99244        -1.85003
O          3.75523        -1.12379         1.86679
H          4.01270        -2.06569         1.97725
O         -2.32325        -1.30111        -1.55134
H         -1.98226        -2.15222        -1.92278
O         -0.81390        -5.39449         2.17339
H         -0.80072        -6.38762         2.35093
O         -0.32726         7.49905         2.69931
H          0.27528         8.26380         2.97158
O         -4.95658        -7.06290        -1.41920
H         -4.64060        -7.90602        -1.83498
O          4.16648         8.82718         2.02550
H          3.31051         9.17973         2.38553
O         -3.54344        -9.28806        -1.77659
H         -2.67292        -8.87500        -1.97047
H         11.86648        -1.17715         0.47427
H         11.75448         1.09260         0.62676
H         10.85377         3.55357         0.22707
H          9.52474         5.63124        -0.72898
H          8.36456         7.88868        -0.16704
H          7.05218         9.98521        -0.41465
H          4.85273        10.93655        -1.00842
H          2.42149        10.37884        -1.54462
H          0.13138        10.13134        -1.77376
H         -2.43172         9.74238        -2.10573
H         -5.00039        10.90028        -1.49547
H         -6.96916         9.56414        -1.82770
H         -8.43531         7.70995        -0.62364
H         -9.68594         5.63119        -0.43720
H        -10.88553         3.49772        -0.19523
H        -12.09622         1.25040         0.20465
H        -12.02377        -1.18553         0.41427
H        -10.94261        -3.35402        -0.31069
H         -9.76297        -5.55958        -0.21579
H         -8.44393        -7.60042         0.39525
H         -7.11881        -9.98820         0.04900
H         -5.05071       -11.16767        -0.31104
H         -2.39834       -11.25587        -0.16760
H          0.13114       -11.26525         0.43090
H          2.58373       -11.18751         0.17946
H          5.00405       -11.22884        -0.21310
H          7.11802        -9.98927        -0.45386
H          8.35888        -7.87963        -0.55626
H          9.60846        -5.75328        -0.84661
H         10.58871        -3.40941         0.36386
