         234
 CSIRO Nanostructure Databank - Neutral Graphene Oxide Data Set
C          1.25746         2.14777         0.73956
C          1.29124         3.52212         0.98107
C          2.44394         1.45127         0.56720
C          2.51807         4.21428         1.11199
C          1.33504         6.39751         1.42655
C          1.28480         7.78526         1.33118
C          2.52335         5.67343         1.22438
C          2.44124         8.53022         1.01720
C          1.19695        10.68892         0.74860
C          1.19776        12.06193         0.54775
C          2.40942         9.97489         0.84042
C          2.39537        12.81253         0.53332
C          1.22199        14.89414        -0.39818
C          1.32127        16.14467        -0.91458
C          2.33803        14.28571         0.34534
C          2.55709        16.89620        -0.90324
C          2.60436        18.17563        -1.56401
C          3.69591         2.11491         0.67769
C          3.73385         3.50618         1.00469
C          4.87182         1.37011         0.38774
C          5.04982         4.19599         1.32933
C          3.74313         6.38939         0.99924
C          3.66970         7.82088         0.87709
C          5.00656         5.70972         0.94746
C          4.84758         8.57715         0.59401
C          3.63335        10.71827         0.76291
C          3.63380        12.16071         0.70690
C          4.84329         9.99810         0.66727
C          4.88687        12.91873         0.76069
C          3.66261        15.04787         0.33199
C          3.72201        16.34414        -0.37290
C          4.91332        14.27949         0.52097
C          4.98230        17.04604        -0.47160
C          3.77206        18.86805        -1.67211
C          5.00104        18.35658        -1.11363
C          6.14101         1.98994         0.37507
C          6.22969         3.35728         0.81060
C          7.32643         1.26584         0.05355
C          7.52943         3.84312         0.88763
C          6.14096         6.51488         0.64774
C          6.04893         7.88400         0.33288
C          7.49904         6.01362         0.65490
C          7.19591         8.63733        -0.31255
C          6.13534        10.68561         0.81539
C          6.15877        12.17194         0.99994
C          7.38657         9.97831         0.36820
C          7.49683        12.87560         0.83572
C          6.16403        15.08419         0.54635
C          6.16099        16.45675        -0.02298
C          7.49239        14.38143         0.74843
C          7.40779        17.24516         0.02923
C          6.17287        19.07589        -1.24307
C          7.39907        18.64561        -0.58784
C          8.59245         1.89912        -0.04815
C          8.64075         3.29775         0.23948
C          9.84156         1.25432        -0.26041
C          9.74381         4.12161        -0.32691
C          8.53021         6.47192        -0.13263
C          8.50253         7.88743        -0.43603
C          9.66860         5.61317        -0.57315
C          9.66761         8.57301        -0.64903
C          8.56965        10.77506        -0.01701
C          8.64008        12.12745         0.23007
C          9.67606        10.05206        -0.67860
C          9.88105        12.83755        -0.05329
C          8.77032        15.07195         0.36073
C          8.75059        16.54189         0.06754
C          9.91426        14.26238        -0.08120
C          9.76092        17.06985        -0.95375
C          8.70210        19.30115        -0.87160
C          9.87102        18.59067        -0.86894
C         11.06123         1.99940        -0.24092
C         11.05286         3.43677        -0.38150
C         12.30547         1.35207        -0.15460
C         12.23782         4.16357        -0.61155
C         10.89456         6.34368        -1.08611
C         10.90619         7.85896        -1.07472
C         12.12896         5.47388        -1.39070
C         12.20332         8.58897        -1.04105
C         11.04263        10.74159        -0.72615
C         11.06990        12.11951        -0.27293
C         12.29758         9.94034        -0.80042
C         12.37722        12.79723        -0.02061
C         11.11109        14.91631        -0.49809
C         11.14267        16.36847        -0.95132
C         12.30801        14.22318        -0.50544
C         12.21927        17.10587        -0.13034
C         11.14934        19.24662        -0.81864
C         12.31563        18.57299        -0.48883
C         13.52260         2.09326        -0.16381
C         13.48560         3.50607        -0.49641
C         14.73819         1.45601         0.06962
C         14.73137         4.19611        -0.72796
C         13.41950         6.30630        -1.50149
C         13.42456         7.83035        -1.37726
C         14.72832         5.49340        -1.51129
C         14.71676         8.55593        -1.28313
C         13.58411        10.64297        -0.70302
C         13.60738        12.02535        -0.46507
C         14.83485         9.92000        -0.91435
C         14.84446        12.72820        -0.37229
C         13.57086        14.97102        -0.61676
C         13.54909        16.40101        -0.29312
C         14.87273        14.20903        -0.46236
C         14.72586        17.06106        -0.02561
C         13.56532        19.22610        -0.32720
C         14.73875        18.52756         0.00827
C         16.00718         2.23181         0.20127
C         15.93349         3.57625        -0.47812
C         17.22892         1.45360        -0.22745
C         17.22360         4.31481        -0.51928
C         15.93989         6.37628        -1.29653
C         15.83021         7.71471        -1.61874
C         17.24166         5.76930        -0.90049
C         17.68188         8.74081        -1.03086
C         16.09684        10.62613        -0.58185
C         16.06048        12.03917        -0.27150
C         17.36797        10.01130        -0.45735
C         17.27491        12.77039         0.09682
C         16.01848        14.94866         0.09004
C         15.94438        16.32043         0.23237
C         17.23791        14.20448         0.38233
C         16.94584        17.06815         1.07756
C         15.96812        19.19478         0.20999
C         17.12440        18.50847         0.62973
C         18.41530         2.08436        -0.51417
C         18.48793         3.53599        -0.56218
C         19.65084         1.34606        -0.70158
C         19.70993         4.16815        -0.63112
C         18.59711         6.45500        -1.02339
C         18.63527         7.87922        -0.57919
C         19.81711         5.64281        -0.74774
C         19.67507         8.41584         0.30343
C         18.51000        10.63398         0.17708
C         18.45470        12.06152         0.33973
C         19.65601         9.88499         0.48702
C         19.72208        12.77074         0.54448
C         18.34571        14.88768         0.88946
C         18.25828        16.31020         1.31641
C         19.67424        14.26359         0.81041
C         19.54436        17.08678         1.52702
C         18.34771        19.16787         0.76276
C         19.55734        18.52711         1.14658
C         20.85572         1.97956        -0.74087
C         20.94438         3.41706        -0.63480
C         22.15072         4.09343        -0.49764
C         21.06180         6.27263        -0.22328
C         20.99068         7.63102         0.38347
C         22.19098         5.49002        -0.18995
C         22.20363         8.43610         0.64023
C         20.87924        10.51467         1.03227
C         20.93495        12.03329         1.02425
C         22.13970         9.73721         0.98397
C         22.19828        12.81598         0.94617
C         20.92083        14.89094         1.36645
C         20.88161        16.38071         1.62907
C         22.18129        14.15547         1.06512
C         22.09631        17.20829         1.54813
C         20.76983        19.19998         1.06608
C         22.01901        18.54590         1.29627
O         20.02423         7.64130         1.50013
O          7.28763        18.42723         0.87678
O          6.99685        12.48857         2.15138
O         10.17504        10.60626        -1.92763
O          9.26147         4.66438        -1.65609
O         20.87251        15.39390         2.72478
O          7.76308         5.02655         1.59525
O         20.70289        11.31343         2.26879
O         14.41228        14.65872        -1.79874
O         19.45945         6.11219        -2.14129
O         19.98257        13.72594        -0.53199
O          7.02647         9.98279         1.76983
O         13.33881         7.13556        -2.69639
O         17.16806         5.35751         0.54577
O          6.83779        15.01846         1.86306
O         10.59941         7.10773        -2.30144
O         16.95041         8.35240        -2.14433
O          9.21435        16.10477         1.34814
O          2.78318        15.04746         1.51132
O         18.71895        16.67855         2.66701
O         11.58610        16.39490        -2.33200
H         12.39938        15.85182        -2.42129
O         16.26554        17.15630         2.36809
H         16.97726        17.21860         3.04966
O         16.18363         2.51181         1.64817
H         16.74203         3.31702         1.72486
O          9.11193        16.76683        -2.21418
H          9.82923        16.71526        -2.88997
O         11.91426         4.96778        -2.73772
H         10.95060         4.77567        -2.82299
O         12.55216        12.89428         1.44930
H         11.79970        13.41710         1.80388
O         11.83907        17.00457         1.26183
H         12.49706        17.49322         1.79921
O          6.76674         8.95253        -1.67426
H          6.97202         8.18530        -2.24931
O         14.90351         5.04175        -2.89097
H         14.41059         5.67377        -3.46511
O          5.16997         4.19075         2.78791
H          6.03711         4.59921         3.00460
H          0.29222         1.63007         0.65415
H          0.33968         4.06368         1.05901
H          2.43008         0.37792         0.32974
H          0.40343         5.86612         1.66229
H          0.32422         8.29149         1.49600
H          0.23539        10.16074         0.79896
H          0.23491        12.58095         0.44836
H          0.30152        14.31421        -0.55571
H          0.46266        16.58483        -1.44336
H          1.67320        18.58352        -1.98318
H          4.77998         0.30575         0.12736
H          3.79544        19.84851        -2.16945
H          7.24180         0.19111        -0.16305
H          6.19352        19.97851        -1.87183
H          9.88867         0.15820        -0.33034
H          8.72700        20.40297        -0.87270
H         12.34545         0.26061        -0.02487
H         11.17452        20.34036        -0.95034
H         14.75367         0.37628         0.28245
H         13.61235        20.31870        -0.45503
H         17.20507         0.35595        -0.14570
H         16.01913        20.28254         0.04648
H         19.59689         0.24891        -0.75414
H         18.40390        20.23000         0.47603
H         21.78640         1.40011        -0.82904
H         23.09174         3.52495        -0.48698
H         23.14934         5.91320         0.14550
H         23.18512         7.94402         0.56862
H         23.06830        10.27082         1.23382
H         23.15292        12.28943         0.80013
H         23.12510        14.71970         1.03831
H         23.06773        16.73010         1.73344
H         20.77177        20.26324         0.78691
H         22.93962        19.14383         1.24480
