         314
 CSIRO Nanostructure Databank - Neutral Graphene Oxide Data Set
C         30.86274        56.62938        -1.81914
C         30.81350        57.96630        -2.24634
C         29.65515        58.81830        -2.22069
C         30.84505        61.04250        -2.05768
C         29.70352        60.20625        -2.10410
C         32.98909        52.52191        -0.43185
C         33.21082        53.85208        -0.92745
C         32.05891        54.59859        -1.23946
C         33.37722        56.61003        -1.81650
C         32.10085        55.94392        -1.66325
C         33.31821        57.95188        -2.35640
C         32.06049        58.49468        -2.66643
C         33.39910        61.04488        -2.20099
C         32.10481        60.64117        -2.54922
C         35.40135        48.44273         1.10668
C         35.39258        49.81417         0.78467
C         34.11587        50.40091         0.46459
C         35.83009        52.63905        -0.16545
C         33.99948        51.55659        -0.31857
C         35.61818        54.01444        -0.24100
C         34.47276        54.57925        -0.87462
C         35.80115        56.65821        -1.10091
C         34.54791        55.95988        -1.30174
C         36.13711        57.87160        -1.77043
C         34.44306        58.80206        -2.64246
C         35.84377        60.80956        -2.28091
C         34.54814        60.21619        -2.45045
C         37.86368        44.19225         1.76988
C         37.81918        45.61131         1.72948
C         36.60570        46.33101         1.54854
C         37.78391        48.50702         1.67172
C         36.58494        47.73913         1.43835
C         37.74757        49.91040         1.55487
C         36.62241        50.58313         0.97555
C         37.79563        52.83515         1.22706
C         36.71928        51.99173         0.73336
C         37.79899        54.19144         0.98206
C         36.53521        54.90275         0.56417
C         37.82505        57.02538         0.26511
C         36.77288        56.22001        -0.13115
C         37.84683        58.44660        -0.11613
C         36.99634        58.83418        -1.24929
C         38.12586        61.00396        -1.39238
C         36.98726        60.20719        -1.69946
C         40.30136        39.97474         1.21756
C         40.36243        41.29505         1.79243
C         39.16897        42.04024         1.81094
C         40.28840        44.23548         1.91357
C         39.08886        43.48158         1.89039
C         40.27966        45.66203         1.84454
C         39.03846        46.36613         1.81698
C         40.23859        48.51109         2.01744
C         39.02572        47.79837         1.88951
C         40.21868        49.95907         2.29089
C         38.90087        50.68734         2.06513
C         40.21970        52.95064         2.09201
C         38.92625        52.19115         1.93868
C         40.28619        54.37384         1.60885
C         39.03494        55.00254         1.11510
C         40.12713        57.34171         1.47472
C         38.91990        56.49866         1.12350
C         40.17730        58.86188         1.14437
C         39.01255        59.33900         0.25256
C         40.42393        61.21181        -0.56733
C         39.19913        60.54287        -0.59965
C         42.17866        36.38711        -1.72331
C         42.18137        37.61105        -1.05095
C         41.10744        38.09778        -0.24752
C         42.72835        39.48578         0.89225
C         41.32754        39.16463         0.66098
C         42.95670        41.43435         1.92070
C         41.61415        42.02789         2.16808
C         42.75403        44.24216         1.46547
C         41.57085        43.53339         2.10490
C         42.78830        45.70895         1.80537
C         41.49069        46.40421         1.80881
C         42.68144        48.55021         1.65457
C         41.48555        47.82440         1.86820
C         42.77253        49.98418         1.90324
C         41.51389        50.74032         2.29489
C         42.68494        52.90651         1.93279
C         41.51231        52.22191         2.10330
C         42.75201        54.40331         2.07579
C         41.45717        55.18495         2.09690
C         42.73056        57.30338         1.42542
C         41.45134        56.73873         2.02776
C         42.73028        58.68509         1.00538
C         41.52447        59.35599         0.66570
C         42.82287        61.30975        -0.09635
C         41.59032        60.63587         0.03218
C         44.53851        33.65484        -2.66862
C         43.41147        34.45513        -2.71998
C         44.46224        36.68829        -2.56894
C         43.34997        35.86299        -2.37260
C         44.54730        38.05870        -2.05253
C         43.36806        38.49744        -1.19388
C         44.95938        40.17292        -0.12509
C         43.70718        39.34892        -0.04426
C         45.12369        41.46369         0.61018
C         44.05065        42.07726         1.44326
C         45.33206        44.28678         1.15806
C         44.09748        43.55387         1.57423
C         45.21971        45.74002         0.87181
C         44.01682        46.45496         1.37161
C         44.93722        48.66752         0.40697
C         43.81062        47.87811         0.99691
C         44.98363        50.12170         0.74175
C         43.95074        50.73144         1.40430
C         45.20760        52.96442         1.61011
C         43.96815        52.16768         1.82255
C         45.16230        54.44875         1.47323
C         43.99500        55.14370         1.71343
C         45.17995        57.27517         1.20519
C         43.93601        56.58698         1.46664
C         45.19984        58.69373         1.07694
C         43.96558        59.37977         0.87544
C         45.21803        61.47702         0.47920
C         44.02084        60.74958         0.41185
C         45.86217        34.03269        -2.31279
C         47.49976        35.88083        -1.81066
C         46.34564        35.34406        -2.40914
C         47.76984        37.28179        -1.77548
C         45.89826        38.61502        -1.74620
C         47.49539        40.11862        -0.55188
C         46.16297        39.54599        -0.76719
C         47.61393        41.43131        -0.00437
C         46.44096        42.16037         0.50976
C         47.65479        44.22453        -0.06377
C         46.47538        43.52397         0.60226
C         47.57213        45.81375        -0.09563
C         46.23607        46.43201         0.31443
C         47.51225        48.63747        -0.04434
C         46.20131        47.90647         0.06360
C         47.50303        50.13401         0.04756
C         46.21855        50.88196         0.37960
C         47.64625        52.94846         1.04442
C         46.32376        52.28684         0.87588
C         47.58702        54.42106         0.96347
C         46.40535        55.11792         1.11747
C         47.59403        57.28630         0.78572
C         46.41042        56.57573         1.05379
C         47.63566        58.70800         0.82557
C         46.42882        59.40804         1.01975
C         47.68840        61.55474         0.72293
C         46.41630        60.90719         1.18488
C         48.73827        37.95407        -1.06125
C         49.93218        40.08910        -0.84626
C         48.71365        39.40333        -0.86370
C         50.01993        41.47603        -0.53206
C         48.85793        42.10063         0.01672
C         50.23643        44.21660         0.23203
C         48.93278        43.52451         0.55483
C         50.42092        45.51830         0.67848
C         48.58302        46.61604         0.70910
C         50.07229        48.60364         0.55150
C         48.76751        47.93591         0.39867
C         50.07947        49.99350         0.49421
C         48.83104        50.77748         0.25902
C         50.05315        52.92718         0.09950
C         48.88883        52.19867         0.72255
C         50.10847        54.38391         0.49137
C         48.86409        55.13787         0.79707
C         50.10899        57.28006         0.37528
C         48.79556        56.54765         0.26838
C         50.10745        58.70030         0.44648
C         48.88197        59.40995         0.61784
C         50.12560        61.52930         0.31528
C         48.87776        60.84963         0.53843
C         51.20850        42.21269        -0.77832
C         52.46121        44.38977        -0.75158
C         51.31213        43.60343        -0.48730
C         52.53048        45.77852        -0.43667
C         51.42016        46.41401         0.22592
C         52.54951        48.56549         0.17782
C         51.34724        47.85315         0.40601
C         52.65454        49.99610         0.48016
C         51.31429        50.77498         0.65923
C         52.55081        52.88419         0.17022
C         51.36325        52.21412         0.34921
C         52.55318        54.33960        -0.15606
C         51.27869        55.12471        -0.05182
C         52.55054        57.25595         0.08148
C         51.30204        56.58322         0.16740
C         52.54220        58.67497         0.07267
C         51.34568        59.39412         0.24733
C         52.58732        61.54624         0.08589
C         51.34384        60.85010         0.20723
C         53.68106        46.55699        -0.70900
C         54.93371        48.66456        -0.51890
C         53.73121        47.92112        -0.34927
C         55.02043        50.06464        -0.30748
C         53.83466        50.77702         0.08704
C         55.03271        52.92727        -0.11340
C         53.81891        52.18184         0.09845
C         55.04993        54.35099        -0.07845
C         53.81189        55.09709        -0.05537
C         55.05379        57.20105         0.19098
C         53.77777        56.48355         0.01099
C         55.05280        58.70434         0.10422
C         53.79140        59.39142        -0.37072
C         55.05119        61.52526        -0.16352
C         53.81164        60.87662        -0.08938
C         56.21828        50.79305        -0.48308
C         57.47491        52.92266        -0.45095
C         56.26102        52.20472        -0.33454
C         57.51690        54.33302        -0.34388
C         56.28617        55.05848        -0.15546
C         57.50995        57.19915        -0.21070
C         56.31405        56.47886        -0.05380
C         57.51687        58.64771        -0.26005
C         56.31934        59.38749        -0.18553
C         57.51931        61.48581        -0.47759
C         56.29677        60.81439        -0.30768
C         58.72598        55.06259        -0.44287
C         59.95118        57.19870        -0.56315
C         58.74567        56.47535        -0.40207
C         59.97114        58.61335        -0.60150
C         58.74276        59.34309        -0.47589
C         59.98051        61.44328        -0.75706
C         58.74225        60.77045        -0.56903
C         61.18005        59.33323        -0.78863
C         61.17187        60.72711        -0.85878
O         37.77526        59.39988         1.03075
O         45.03376        43.99004         2.58982
O         39.31506        50.27092         3.39963
O         52.12769        50.37301         1.79294
O         44.91365        52.43484         2.93296
O         42.44791        50.31834         3.32248
O         39.30040        52.81667         3.21225
O         43.03153        40.05096         2.12851
O         35.59722        58.13228        -3.05066
O         42.05969        54.75770         3.33259
O         43.73900        46.20594         2.78814
O         51.75381        54.68735        -1.36826
O         40.09431        54.53278         0.16154
O         55.02281        58.05938         1.40681
O         49.83269        54.81014         1.85532
O         43.82973        48.22257        -0.44804
O         41.63428        42.85030         3.39109
O         32.05383        59.59689        -3.51561
O         45.58061        36.22031        -3.23068
O         48.53745        52.41603         2.10619
O         47.82032        46.18683        -1.42889
O         43.55863        39.03708        -2.53329
O         39.05337        57.09494         2.45446
O         46.78498        48.22024        -1.24182
O         45.97345        52.01626        -0.51961
O         44.60912        41.43911        -0.81154
O         46.90860        38.10621        -2.54707
O         49.47467        46.00922         1.58838
O         48.24362        50.68501        -1.08258
O         35.15937        51.83719        -1.08580
O         35.82536        55.25198         1.80155
H         35.81223        54.45964         2.37912
O         49.78381        52.88797        -1.32149
H         50.47194        53.43713        -1.77261
O         48.73566        43.50617         1.98458
H         49.57283        43.24053         2.41663
O         42.45993        44.18573         0.03506
H         41.59746        44.62332        -0.13047
O         48.55089        56.36539        -1.17090
H         48.46201        57.25328        -1.57723
O         39.99663        59.54683         2.40666
H         39.06502        59.37379         2.67653
O         46.28932        61.20098         2.63377
H         45.51534        60.70063         2.96983
O         47.61286        43.79935        -1.43353
H         47.65390        44.63164        -1.98612
O         41.51986        57.21369         3.38725
H         40.63089        57.09695         3.78918
O         53.83632        59.25526        -1.83124
H         53.07196        59.74530        -2.20113
H         29.93455        56.09940        -1.55728
H         28.67655        58.33282        -2.08758
H         30.74679        62.02617        -1.57587
H         28.74399        60.69675        -1.87235
H         31.97044        52.27298        -0.09804
H         31.07528        54.11453        -1.14361
H         33.54453        61.98065        -1.64311
H         34.46599        47.87392         0.99757
H         33.21223        49.90342         0.84727
H         35.87454        61.90981        -2.34058
H         36.92038        43.63016         1.70012
H         35.66468        45.77387         1.42638
H         38.20811        62.00060        -1.85220
H         39.27693        39.65454         0.95809
H         38.23088        41.50655         1.58801
H         40.53876        62.14619        -1.13683
H         41.30249        35.72846        -1.63034
H         40.10655        37.65299        -0.35280
H         42.84110        62.31088        -0.55179
H         44.36279        32.57152        -2.76863
H         42.44300        33.94485        -2.83952
H         45.25167        62.50283         0.08244
H         46.52487        33.25651        -1.90340
H         48.15802        35.20759        -1.24423
H         47.70442        62.65395         0.65702
H         49.56628        37.39182        -0.60406
H         50.84696        39.55699        -1.14592
H         50.12097        62.62932         0.27964
H         52.06509        41.69599        -1.23718
H         53.32658        43.92068        -1.24245
H         52.58401        62.64414         0.16811
H         54.55855        46.08795        -1.17742
H         55.82968        48.12918        -0.86757
H         55.08751        62.62322        -0.09056
H         57.14340        50.25428        -0.73605
H         58.40979        52.37011        -0.62631
H         57.53491        62.58424        -0.53648
H         59.67177        54.51821        -0.58301
H         60.89467        56.64604        -0.68851
H         59.98985        62.54057        -0.82524
H         62.12621        58.78122        -0.88171
H         62.11812        61.26722        -1.00360
