         429
 CSIRO Nanostructure Databank - Neutral Graphene Oxide Data Set
C          1.35830         1.98798         0.83834
C          1.31812         3.38897         0.79010
C          2.51865         1.30083         0.52693
C          2.46218         4.14215         0.44284
C          1.24530         6.31476         0.62179
C          1.23529         7.69530         0.65450
C          2.44760         5.59571         0.42662
C          2.42958         8.44299         0.51795
C          1.27171        10.63407         0.88746
C          1.27129        12.05127         0.93812
C          2.42035         9.88361         0.67740
C          2.42368        12.81173         0.79024
C          1.26540        15.03718         0.81905
C          1.29323        16.45990         0.75385
C          2.38739        14.25372         0.59176
C          2.41912        17.17191         0.37678
C          2.54265        18.60112         0.58689
C          3.69641         2.01056         0.13558
C          3.66568         3.45765         0.12494
C          4.83993         1.31924        -0.25445
C          4.86238         4.19168        -0.15383
C          3.65329         6.32408         0.21584
C          3.65237         7.75316         0.27701
C          4.87301         5.61016        -0.06128
C          4.88281         8.48938         0.05287
C          3.72024        10.57122         0.72294
C          3.71498        12.09246         0.80778
C          4.92204         9.87998         0.20366
C          4.98592        12.80914         0.46119
C          3.58252        14.92438         0.03350
C          3.57452        16.43054        -0.14885
C          4.91794        14.26957         0.15903
C          4.87771        17.15672        -0.33825
C          3.69036        19.29583         0.37159
C          4.92167        18.65705        -0.14481
C          6.03820         2.01392        -0.80610
C          6.06772         3.49537        -0.49320
C          7.30374         1.33765        -0.36624
C          7.26390         4.18139        -0.63403
C          6.08835         6.32575        -0.28846
C          6.09780         7.75699        -0.26506
C          7.29374         5.60969        -0.55280
C          7.29636         8.44370        -0.53198
C          6.09399        10.65569        -0.14446
C          6.14238        12.03031        -0.03343
C          7.29250         9.94137        -0.75201
C          7.28415        12.80260        -0.68749
C          6.14401        15.00469        -0.26030
C          6.13167        16.40092        -0.24307
C          7.35408        14.28009        -0.36406
C          7.39565        17.11407         0.13206
C          6.23821        19.31656        -0.03859
C          7.41670        18.60650        -0.11597
C          8.50425         2.00588        -0.42844
C          8.51015         3.40566        -1.01782
C          9.73991         1.36166        -0.15159
C          9.77833         4.16426        -0.72306
C          8.51392         6.31921        -0.77775
C          8.49241         7.73272        -0.78385
C          9.76705         5.57602        -0.83778
C          9.72233         8.47667        -1.15006
C          8.59511        10.59838        -0.25916
C          8.60195        12.09733        -0.48405
C          9.82238         9.92327        -0.84952
C          9.78324        12.78587        -0.47616
C          8.59694        14.98792        -0.44438
C          8.62835        16.37383        -0.28318
C          9.84932        14.23739        -0.54585
C          9.93848        17.08064        -0.05576
C          8.68193        19.25665        -0.26103
C          9.89652        18.57210        -0.32637
C         10.97557         2.03510        -0.24732
C         10.97919         3.47601        -0.46935
C         12.19534         1.35900        -0.04497
C         12.20435         4.19155        -0.33077
C         11.00282         6.26571        -0.85086
C         11.02641         7.68733        -1.22105
C         12.21311         5.60240        -0.54839
C         12.33326         8.41482        -1.17185
C         11.01002        10.59413        -0.87313
C         11.05090        12.01584        -0.42495
C         12.30810         9.92612        -1.13129
C         12.33703        12.76834        -0.46504
C         11.06570        14.91859        -0.60580
C         11.05134        16.41126        -0.85589
C         12.32042        14.24470        -0.57614
C         12.37258        17.09398        -0.59316
C         11.12899        19.23620        -0.51300
C         12.36912        18.54929        -0.55186
C         13.43015         2.05199         0.03620
C         13.42362         3.48857        -0.04966
C         14.65958         1.38358         0.24591
C         14.62014         4.19870         0.20054
C         13.42525         6.36155        -0.34162
C         13.51051         7.72847        -0.59949
C         14.56419         5.66675         0.27101
C         14.72866         8.47349        -0.40733
C         13.56443        10.61996        -0.78148
C         13.56143        12.09949        -1.03635
C         14.73770         9.91708        -0.59754
C         14.82404        12.81265        -0.62921
C         13.54063        14.93190        -0.58395
C         13.54359        16.38055        -0.53027
C         14.79989        14.20529        -0.52476
C         14.82325        17.09971        -0.17544
C         13.60233        19.23813        -0.62035
C         14.84396        18.55871        -0.58287
C         15.87157         2.08471         0.43083
C         15.83921         3.53257         0.45090
C         17.10757         1.39184         0.56490
C         17.05088         4.27252         0.66664
C         15.88011         6.43637         0.41685
C         15.92033         7.82558        -0.04812
C         17.12573         5.66469         0.53817
C         17.18779         8.49373        -0.10177
C         16.00614        10.62550        -0.53139
C         16.03644        12.04426        -0.58022
C         17.21835         9.89647        -0.38293
C         17.29139        12.71802        -0.59596
C         16.04337        14.95579        -0.53326
C         16.05065        16.32643        -0.57192
C         17.33431        14.20023        -0.31963
C         17.25213        17.06509        -1.02201
C         16.06380        19.22475        -0.71725
C         17.32078        18.54146        -0.85977
C         18.32108         2.05951         0.83439
C         18.25445         3.52064         1.05750
C         19.56373         1.40847         0.90650
C         19.56235         4.28955         1.14765
C         18.37774         6.38349         0.50697
C         18.39430         7.79119         0.16733
C         19.58468         5.71318         0.76655
C         19.64984         8.47468         0.04257
C         18.47753        10.57040        -0.49570
C         18.47530        11.99583        -0.66892
C         19.68257         9.84300        -0.33419
C         19.74969        12.71790        -0.86953
C         18.57528        14.87314        -0.83860
C         18.52884        16.29416        -1.22657
C         19.76283        14.19819        -0.81282
C         19.82906        17.02295        -1.35616
C         18.53279        19.20485        -0.90136
C         19.82610        18.55368        -1.19425
C         20.80457         2.11303         1.06597
C         20.80665         3.51475         1.09731
C         22.07000         1.41157         1.03415
C         22.03687         4.26850         1.34532
C         20.84849         6.39229         0.69190
C         20.87864         7.77390         0.31486
C         22.04738         5.71171         1.02336
C         22.12818         8.47430         0.31703
C         21.01649        10.43600        -0.75407
C         21.03774        11.96270        -0.85015
C         22.18662         9.86412        -0.00086
C         22.25742        12.72411        -0.47417
C         21.04309        14.88272        -0.90216
C         21.07278        16.28995        -1.05480
C         22.24611        14.16818        -0.63792
C         22.29093        17.00432        -1.01156
C         21.11574        19.17713        -0.88125
C         22.31617        18.46743        -0.96336
C         23.29800         2.05091         1.15486
C         23.32670         3.49209         1.50975
C         24.54032         1.37547         0.90933
C         24.65126         4.24997         1.52410
C         23.30890         6.37397         0.92136
C         23.33304         7.79778         0.63415
C         24.50834         5.65957         0.99062
C         24.54934         8.53091         0.68966
C         23.36327        10.60194         0.15767
C         23.37304        12.04059        -0.03097
C         24.57756         9.94207         0.54656
C         24.59612        12.77124         0.35463
C         23.46180        14.89478        -0.57571
C         23.48972        16.27677        -0.83231
C         24.66333        14.24382        -0.01709
C         24.78290        16.97137        -0.98397
C         23.58183        19.12948        -0.85333
C         24.81314        18.44519        -0.88841
C         25.76554         2.03788         0.79377
C         25.81773         3.49327         0.91440
C         26.99457         1.34720         0.53628
C         26.97023         4.15819         0.63682
C         25.74412         6.38132         0.70360
C         25.78385         7.84070         0.88127
C         27.01414         5.63516         0.58887
C         26.98518         8.50349         1.04431
C         25.82192        10.63775         0.67172
C         25.86958        12.05364         0.53016
C         27.03288         9.93334         0.96575
C         27.08449        12.75850         0.61913
C         25.98750        14.83928        -0.16324
C         26.06989        16.20293        -0.69633
C         27.13400        14.16943         0.27690
C         27.29079        16.96374        -0.44642
C         26.06709        19.08337        -0.83552
C         27.29734        18.37407        -0.65850
C         28.20194         2.01266         0.29178
C         28.17400         3.50008         0.03682
C         29.44347         1.35862         0.15371
C         29.46569         4.21623         0.39187
C         28.27642         6.32976         0.84745
C         28.20716         7.71440         1.44100
C         29.47569         5.61571         0.73277
C         29.48333         8.48937         1.30255
C         28.26058        10.63331         1.12985
C         28.30599        12.05971         0.94856
C         29.48111         9.86436         1.32274
C         29.52416        12.78612         1.02890
C         28.40037        14.85743         0.26730
C         28.45280        16.25815        -0.04547
C         29.58329        14.16943         0.66195
C         29.69823        16.94958        -0.01536
C         28.54493        19.04945        -0.59108
C         29.74295        18.36042        -0.32731
C         30.65890         2.08045         0.05141
C         30.66638         3.52394         0.25853
C         31.88904         1.42764        -0.16807
C         31.91498         4.23458         0.31322
C         30.72988         6.29187         0.92312
C         30.73251         7.69623         1.40226
C         31.93445         5.63443         0.64001
C         32.04523         8.42810         1.46170
C         30.73844        10.59278         1.62195
C         30.74974        12.11052         1.51535
C         32.03849         9.91123         1.49621
C         32.06712        12.77832         1.44877
C         30.82580        14.88261         0.69067
C         30.87432        16.23616         0.32317
C         32.02059        14.25162         1.32339
C         32.17828        16.91804         0.14548
C         30.99307        19.04610        -0.31577
C         32.20762        18.38314        -0.07646
C         33.10139         2.14270        -0.23956
C         33.11829         3.55934         0.00985
C         34.32602         1.49694        -0.57885
C         34.34409         4.28945        -0.11236
C         33.18828         6.35810         0.58557
C         33.25008         7.75132         0.93789
C         34.34967         5.71237         0.12489
C         34.42361         8.47854         0.82047
C         33.22023        10.61489         1.51078
C         33.25273        12.06842         1.55779
C         34.49583         9.85053         1.41130
C         34.55160        12.76759         1.86775
C         33.30936        15.00561         1.43568
C         33.42736        16.25938         0.63542
C         34.56822        14.27546         1.84960
C         34.66398        17.04573         0.76716
C         33.43654        19.05942        -0.01351
C         34.66073        18.42663         0.36714
C         35.50890         2.20528        -0.70577
C         35.52852         3.61608        -0.47780
C         36.74316         1.48414        -1.20731
C         36.73150         4.38502        -0.76374
C         35.53890         6.47808        -0.15202
C         35.59382         7.87857         0.23691
C         36.66072         5.83065        -0.68708
C         36.78830         8.60184         0.14693
C         35.81570        10.55677         1.49676
C         35.93655        12.04451         1.90781
C         37.00764         9.87793         0.87212
C         37.06746        12.83684         1.23729
C         35.89365        15.04729         1.85371
C         35.83322        16.40275         1.15267
C         37.10946        14.24269         1.38871
C         37.05363        17.12064         1.11152
C         35.86184        19.15645         0.45237
C         37.07211        18.52727         0.82761
C         38.04541         2.25291        -0.94671
C         37.89325         3.74728        -1.15351
C         39.19953         1.67700        -1.74366
C         39.03799         4.49072        -1.79407
C         37.79200         6.63056        -1.15031
C         37.85456         8.09041        -0.70464
C         39.06649         5.97634        -1.51501
C         39.14074         8.80376        -0.81144
C         38.23879        10.68242         0.54354
C         38.25457        12.16419         0.75870
C         39.25043        10.07890        -0.36138
C         39.43231        12.85430         0.52941
C         38.32025        14.97184         1.29218
C         38.27022        16.41089         1.37843
C         39.64725        14.21946         1.16312
C         39.40244        17.21597         1.60752
C         38.30175        19.24275         0.87416
C         39.49009        18.59419         1.25134
C         40.31061         2.38957        -1.97017
C         40.38133         3.82077        -1.48782
C         41.50363         4.62969        -2.09335
C         40.19942         6.69045        -1.76959
C         40.21243         8.21504        -1.72495
C         41.39785         5.96877        -2.20846
C         41.56088         8.78294        -1.34801
C         40.42368        10.90889        -0.82545
C         40.68138        12.16019         0.02175
C         41.65970        10.04352        -0.91601
C         41.51575        13.10241        -0.81388
C         40.80550        14.99975         0.53377
C         41.20380        16.22891         1.06847
C         41.56540        14.42665        -0.53829
C         42.12081        17.18837         0.57587
C         40.78508        19.22510         1.16903
C         41.96743        18.56731         0.84079
O         18.77357         3.96764         2.35395
O         17.63981        16.56798        -2.36280
O          3.31342        15.52062        -1.27216
O         10.26838         8.01799        -2.42417
O         33.03580        16.12471        -0.78039
O          4.78847        18.06203        -1.50130
O         20.45368        12.35666        -2.14131
O         31.46385         7.84072         2.68511
O          5.23736        13.81053         1.53139
O         34.37030        13.55580         3.08524
O         30.58284        11.42758         2.81133
O         37.38989         7.71255        -2.07949
O         35.30099         9.80403         2.65199
O         22.56226         3.86530         2.69948
O         19.88628        17.87273        -2.51784
O         40.50035        16.64002         2.23298
O         12.52612         9.19113        -2.39439
O          3.92431        11.27259         2.00324
O         11.85100        12.22698         0.80721
O         24.38797        13.80129         1.37555
O         38.15989         9.89226         1.78930
O         32.35896        15.05360         2.53680
O         26.32779         6.07103        -0.69102
O         14.97231         6.23183         1.55924
O         25.56552        16.39502        -2.08066
O         38.35815         2.08205         0.46354
H         39.14955         2.64772         0.64250
O         36.12261        15.37955         3.24822
H         37.02131        15.76203         3.32807
O         17.51017        14.26678         1.15502
H         16.63472        14.10322         1.56818
O         40.54269         3.82012        -0.03676
H         41.44550         3.49779         0.16724
O         28.02911         3.65987        -1.41990
H         27.57376         4.51840        -1.57685
O          7.41867        17.02534         1.64249
H          7.25814        16.08331         1.87710
O          7.26682        10.11864        -2.20326
H          6.57581         9.53173        -2.57580
O          6.99376        12.79265        -2.12619
H          7.13299        11.86391        -2.44856
O          8.46705         3.24002        -2.46851
H          7.64823         2.71730        -2.66794
O         39.88323         8.68027        -3.07535
H         38.94707         8.40489        -3.22921
O         36.37363        12.03631         3.28080
H         35.86776        11.32791         3.74149
O          5.98592         1.91081        -2.29844
H          5.15480         2.34421        -2.58940
O         38.83138         4.34860        -3.23600
H         38.09155         4.93856        -3.49270
O         21.21749         9.92978        -2.11529
H         20.79585        10.59045        -2.71581
O         28.05430         7.48673         2.89556
H         28.94726         7.32249         3.27078
O         25.03529         4.43380         2.92189
H         24.19235         4.49745         3.43267
O         41.45662        11.76206         1.18513
H         41.34814        12.47002         1.86460
O         36.59329         1.24483        -2.61677
H         36.53833         2.10996        -3.07238
O         10.24019        16.91755         1.36006
H          9.41678        17.15417         1.85121
O         40.09563        13.90405         2.53405
H         39.34805        13.45499         2.98771
O         13.43700        12.26686        -2.48881
H         14.04825        11.63567        -2.92429
O         14.86422        17.12051         1.30003
H         14.03064        17.53784         1.60728
O         10.72092        16.61106        -2.25831
H         11.40777        16.17067        -2.80102
O         40.08358        11.36418        -2.16360
H         40.01636        10.55432        -2.73197
O          8.63639        10.36855         1.17522
H          9.39337        10.87055         1.54603
H          0.45446         1.43415         1.12844
H          0.37955         3.89338         1.05362
H          2.54355         0.20241         0.55731
H          0.29547         5.77991         0.75097
H          0.28084         8.21224         0.81830
H          0.29402        10.13566         0.93805
H          0.29508        12.55303         0.99522
H          0.34010        14.56746         1.18145
H          0.40637        17.00977         1.10225
H          1.66064        19.12854         0.98117
H          4.82648         0.21891        -0.26647
H          3.73060        20.36939         0.60934
H          7.26096         0.29535        -0.01507
H          6.26352        20.41760        -0.07117
H          9.73041         0.29867         0.13538
H          8.68488        20.35357        -0.36869
H         12.18513         0.26725         0.09228
H         11.13249        20.33425        -0.60101
H         14.66977         0.28372         0.27687
H         13.59492        20.33244        -0.74274
H         17.11248         0.29690         0.45380
H         16.06111        20.32257        -0.81017
H         19.59535         0.31437         0.79275
H         18.54718        20.28939        -0.70937
H         22.05299         0.33039         0.82721
H         21.13879        20.25017        -0.63660
H         24.50649         0.28887         0.73438
H         23.58921        20.22778        -0.78272
H         26.99120         0.24639         0.58017
H         26.10295        20.18294        -0.85541
H         29.48118         0.25810         0.16890
H         28.57854        20.13365        -0.77315
H         31.89958         0.33936        -0.33042
H         31.00164        20.13163        -0.49624
H         34.31812         0.41542        -0.78026
H         33.45428        20.14003        -0.22245
H         36.81712         0.48174        -0.71799
H         35.86525        20.22813         0.20439
H         39.12470         0.63166        -2.07941
H         38.32224        20.30270         0.58309
H         41.16517         1.95667        -2.51382
H         42.42550         4.11405        -2.40442
H         42.22744         6.54565        -2.64159
H         42.45623         8.14926        -1.42262
H         42.63195        10.47059        -0.63060
H         42.13254        12.68331        -1.62126
H         42.25823        15.07956        -1.09122
H         42.94584        16.87310        -0.07866
H         40.79911        20.32552         1.14042
H         42.82684        19.21103         0.59322
