         430
 CSIRO Nanostructure Databank - Neutral Graphene Oxide Data Set
C         28.10737        27.40546         0.91927
C         28.19098        28.78988         1.22427
C         27.04313        29.51301         1.64108
C         28.37267        31.54344         1.83340
C         27.13567        30.85555         1.93524
C         28.46106        32.97585         2.23574
C         27.23132        33.77731         2.42336
C         28.37547        35.90586         1.91447
C         27.21602        35.12761         2.24401
C         28.31199        37.29337         1.69434
C         27.08523        38.02917         1.82153
C         28.23291        40.15987         1.46319
C         27.05418        39.39353         1.73584
C         28.21422        41.58379         1.44337
C         27.03866        42.33197         1.77654
C         28.23514        44.43905         1.51222
C         27.04762        43.70151         1.81657
C         28.26331        45.84699         1.56816
C         30.47614        27.35863         0.32958
C         29.21223        26.71535         0.47971
C         30.58190        28.71559         0.66098
C         29.44736        29.45643         1.11053
C         30.77924        31.57231         1.15164
C         29.52881        30.85758         1.42841
C         30.83799        33.03546         1.26795
C         29.72667        33.73244         1.96580
C         30.79142        35.92843         1.19862
C         29.74376        35.26627         2.06169
C         30.71360        37.33849         1.03086
C         29.49986        38.03787         1.33321
C         30.62884        40.17936         0.81753
C         29.45106        39.45110         1.20418
C         30.60243        41.60461         0.76875
C         29.40912        42.30424         1.11273
C         30.59727        44.45330         0.78669
C         29.41474        43.72803         1.14062
C         30.61905        45.87770         0.93141
C         29.43995        46.54432         1.30817
C         32.40636        24.70745        -1.50490
C         31.45049        25.31050        -0.69692
C         32.85456        27.30438        -0.50380
C         31.62008        26.63412        -0.24781
C         32.96860        28.71971        -0.21270
C         31.93671        29.37295         0.69035
C         32.96578        31.63560         0.02664
C         31.83961        30.87818         0.61265
C         33.21725        33.03235         0.55002
C         31.93452        33.76062         0.85735
C         33.05446        35.92200         0.24932
C         31.92834        35.21672         0.78955
C         33.03466        37.33466         0.18790
C         31.85277        38.05401         0.55067
C         32.99150        40.20897         0.07999
C         31.81850        39.47812         0.47292
C         32.96796        41.62149         0.02305
C         31.76569        42.34047         0.35810
C         32.85627        44.52263        -0.33877
C         31.73848        43.75086         0.32107
C         32.99249        45.94796         0.15934
C         31.87443        46.59828         0.73638
C         33.19020        48.63889         0.90616
C         32.01167        47.94556         1.13112
C         35.70770        22.94340        -2.52739
C         35.59238        24.29580        -2.30957
C         33.58399        25.40746        -1.79119
C         35.21903        27.31020        -1.61865
C         33.89446        26.64773        -1.22396
C         35.28804        28.73614        -1.08626
C         34.08513        29.40660        -0.64180
C         35.37944        31.59654        -0.73962
C         34.10823        30.88370        -0.57998
C         35.29612        33.06242        -0.89409
C         34.18660        33.80922        -0.30130
C         35.41251        35.93029        -0.61178
C         34.21088        35.19492        -0.25176
C         35.40630        37.36127        -0.53439
C         34.21154        38.06531        -0.21408
C         35.38681        40.20843        -0.54185
C         34.19546        39.48784        -0.22884
C         35.37607        41.63803        -0.54828
C         34.17013        42.35503        -0.28771
C         35.35165        44.48098        -0.62119
C         34.16725        43.77149        -0.33561
C         35.28929        45.98450        -0.86683
C         34.17467        46.66294        -0.10251
C         35.50843        48.79606        -0.01024
C         34.28427        48.03030         0.25569
C         35.57057        50.19203         0.19885
C         37.98519        22.97028        -1.69949
C         36.90018        22.26650        -2.17314
C         37.92155        24.40959        -1.56405
C         36.64645        25.11204        -1.74635
C         37.74633        27.18280        -1.02236
C         36.50603        26.46556        -1.38938
C         37.75587        28.72497        -1.00370
C         36.47399        29.44390        -1.09624
C         37.81304        31.56857        -1.19032
C         36.54644        30.89146        -0.95870
C         37.88355        33.04601        -0.90223
C         36.58890        33.80493        -1.13290
C         37.86805        35.93410        -1.01182
C         36.61531        35.25187        -0.88602
C         37.84969        37.37135        -0.95614
C         36.61594        38.07637        -0.78444
C         37.80619        40.22081        -1.06501
C         36.59758        39.50084        -0.80519
C         37.78199        41.63662        -1.12025
C         36.56597        42.35719        -0.86525
C         37.71775        44.53325        -1.43817
C         36.53173        43.77788        -0.90119
C         37.76700        45.98358        -0.97921
C         36.63192        46.68644        -0.71017
C         37.87937        48.88436        -0.61243
C         36.68040        48.13476        -0.45109
C         37.96244        50.26527        -0.29258
C         36.75711        50.90379         0.07652
C         40.16521        20.32605        -0.10284
C         39.11688        20.88553        -0.75844
C         40.37124        23.02716        -0.87489
C         39.27514        22.19991        -1.47561
C         40.44841        24.44252        -1.35872
C         39.10273        25.14223        -1.36755
C         40.24424        27.33841        -1.13471
C         39.06997        26.55493        -1.22826
C         40.22250        28.75466        -1.16513
C         38.99707        29.44009        -1.27233
C         40.25888        31.49195        -2.00104
C         38.97599        30.86497        -1.45065
C         40.22732        33.02417        -2.04100
C         39.01164        33.77025        -1.59714
C         40.32353        35.88753        -1.41412
C         39.06808        35.23139        -1.31949
C         40.37903        37.34870        -1.00113
C         39.05785        38.08976        -1.11019
C         40.28171        40.22367        -1.30040
C         39.03792        39.48990        -1.19381
C         40.27637        41.63540        -1.22169
C         39.01679        42.38093        -1.21484
C         40.24878        44.48199        -0.77219
C         39.00432        43.76413        -1.22944
C         40.31348        45.93073        -1.20417
C         39.04317        46.70024        -1.20359
C         40.43098        48.84936        -0.71261
C         39.10416        48.19165        -1.04689
C         40.47580        50.23594        -0.22204
C         39.26019        50.96857        -0.19169
C         40.57083        52.92729         0.43154
C         39.35111        52.34850         0.09619
C         42.56216        20.40356         0.59443
C         41.41475        21.02821         0.07486
C         42.66610        23.18558         0.04673
C         41.46379        22.42815        -0.26033
C         42.69442        24.57922        -0.15057
C         41.41008        25.27354        -0.50810
C         42.65104        27.45381        -0.36172
C         41.60567        26.66477        -1.12153
C         42.63288        28.88487        -0.54370
C         41.46710        29.51702        -1.03933
C         42.69930        31.61895        -1.26661
C         41.49601        30.89829        -1.35212
C         42.79617        32.99624        -1.82147
C         41.53907        33.78859        -2.27453
C         42.78508        35.92564        -1.64737
C         41.51601        35.21302        -1.70910
C         42.79626        37.35088        -1.58276
C         41.47932        38.06524        -1.77085
C         42.72296        40.22101        -1.36933
C         41.51284        39.53175        -1.42281
C         42.73202        41.62643        -1.27286
C         41.50873        42.31215        -1.23214
C         42.73839        44.32911        -0.52174
C         41.53322        43.80718        -1.28049
C         42.75772        45.81599        -0.46929
C         41.64811        46.65275        -1.03720
C         42.57825        48.46816         0.41342
C         41.56234        47.98644        -0.34067
C         42.92853        49.92591         0.42740
C         41.72485        50.79968         0.14116
C         42.94217        52.70074         1.17052
C         41.74550        52.15361         0.53650
C         43.74652        21.10774         0.78700
C         44.99757        23.27493         0.82161
C         43.82529        22.50769         0.53993
C         44.95876        24.70165         0.77362
C         43.78881        25.36307         0.26976
C         44.80383        27.63071         0.88957
C         43.72221        26.80830         0.22200
C         44.96808        29.00720         0.27344
C         43.82262        29.64018        -0.32262
C         45.10430        31.73748        -0.51342
C         43.87138        31.00720        -0.71394
C         45.18495        33.11282        -0.82609
C         44.05610        33.76580        -1.52142
C         45.22914        35.94799        -1.29089
C         44.01598        35.24349        -1.51704
C         45.23481        37.36488        -1.34246
C         43.99533        38.04383        -1.46115
C         45.22190        40.20888        -1.81470
C         44.03028        39.51425        -1.15536
C         45.21607        41.67556        -1.48352
C         44.02032        42.33486        -1.26061
C         45.22422        44.45190        -0.80629
C         44.02386        43.72866        -0.97511
C         45.19308        45.80845        -0.31878
C         43.91656        46.43267        -0.09532
C         44.93985        48.77942         0.30120
C         43.86215        47.72280         0.65338
C         45.08477        49.71769         1.46682
C         43.73108        50.38333         1.67091
C         43.84874        51.88821         1.74563
C         47.35102        23.33179         1.47730
C         46.26845        22.63089         1.07265
C         47.21102        24.77061         1.89638
C         46.09355        25.46946         1.16541
C         47.29476        27.60229         1.26616
C         46.11274        26.88038         1.05335
C         47.25041        29.11198         1.31077
C         46.14056        29.71591         0.47659
C         47.46261        31.80551         0.24103
C         46.24136        31.08787         0.06782
C         47.53847        33.17984        -0.11056
C         46.37665        33.84792        -0.61254
C         47.62722        35.98287        -0.68772
C         46.43294        35.25345        -0.90405
C         47.66447        37.40773        -0.87469
C         46.46804        38.11386        -1.20104
C         47.69323        40.25499        -1.18664
C         46.49728        39.51478        -1.37725
C         47.72239        41.68671        -1.27490
C         46.48954        42.44726        -1.69810
C         47.63986        44.56487        -0.89780
C         46.45645        43.83817        -1.11431
C         47.58736        45.95809        -0.55558
C         46.33870        46.61014        -0.31986
C         47.52565        48.63730         0.43880
C         46.26377        48.17340        -0.28819
C         47.49830        49.47854         1.50976
C         46.27357        50.07000         2.00305
C         49.67750        24.90375         2.32555
C         48.50559        25.53989         1.89651
C         49.75192        27.65173         1.71009
C         48.52014        26.92667         1.61168
C         49.78882        29.06411         1.41030
C         48.59767        29.76735         1.09032
C         49.90396        31.82329         0.72583
C         48.65422        31.12128         0.70220
C         49.96031        33.21720         0.41037
C         48.77041        33.90429         0.01092
C         50.04335        36.02142        -0.13120
C         48.81728        35.29661        -0.27181
C         50.07950        37.43345        -0.34731
C         48.87586        38.13268        -0.69557
C         50.11026        40.27974        -0.65880
C         48.89516        39.55213        -0.84228
C         50.11896        41.70245        -0.75886
C         48.89589        42.40758        -1.02790
C         50.09114        44.57586        -0.83352
C         48.89916        43.86369        -0.97185
C         50.06543        46.00946        -0.62812
C         48.82436        46.67698        -0.41972
C         50.01596        48.71383         0.14925
C         48.80196        48.03248         0.02101
C         50.87778        25.59393         2.39698
C         52.20935        27.67371         2.10729
C         50.94527        26.96701         2.07114
C         52.24587        29.05125         1.77265
C         51.04055        29.74869         1.41869
C         52.34434        31.84208         1.14340
C         51.09573        31.13769         1.10059
C         52.39231        33.23072         0.85274
C         51.19351        33.92521         0.49463
C         52.46892        36.04734         0.34058
C         51.23720        35.33136         0.23308
C         52.50073        37.45507         0.12805
C         51.29734        38.15249        -0.19727
C         52.53494        40.29918        -0.21100
C         51.32030        39.57808        -0.36047
C         52.54610        41.72293        -0.34660
C         51.33392        42.42627        -0.60030
C         52.54885        44.56919        -0.61799
C         51.34701        43.86135        -0.71477
C         52.56362        46.04815        -0.95667
C         51.27892        46.74128        -0.53417
C         51.23104        48.08729        -0.16823
C         54.62315        27.67800         2.46632
C         53.41842        27.01023         2.45160
C         54.68575        29.05801         2.14311
C         53.49191        29.75106         1.79763
C         54.79339        31.82892         1.52867
C         53.54785        31.14503         1.48853
C         54.83681        33.24124         1.24533
C         53.63853        33.93739         0.91950
C         54.90783        36.05179         0.75421
C         53.67685        35.34587         0.67012
C         54.93774        37.48205         0.54824
C         53.73323        38.17911         0.25052
C         54.97400        40.31962         0.21753
C         53.75432        39.60010         0.08195
C         54.98727        41.76535         0.08240
C         53.76672        42.45143        -0.19774
C         54.97366        44.60217        -0.14295
C         53.76345        43.87486        -0.33593
C         54.94911        46.05179        -0.20218
C         53.82902        46.73633        -0.51257
C         55.92324        29.76029         2.16246
C         55.97225        31.10085         1.86469
C         56.05463        33.96923         1.29359
C         56.08841        35.32584         1.05827
C         56.14089        38.22222         0.65141
C         56.15774        39.59437         0.49305
C         56.16918        42.51943         0.23675
C         56.15942        43.90903         0.13867
O         44.11314        49.73881        -0.57954
O         34.41346        24.87431        -2.79093
O         39.66547        46.21983        -2.47793
O         39.92135        48.79606        -2.09469
O         37.73829        27.92865         0.24617
O         35.74443        33.44959        -2.25421
O         33.02921        31.50340        -1.42233
O         29.48283        33.14763         3.30586
O         39.19234        33.43577        -3.00390
O         43.84428        33.11932        -2.84893
O         46.37552        48.58696        -1.66395
H         45.48817        48.87038        -1.97225
O         44.28635        39.61307         0.28162
H         43.53648        39.18750         0.74892
O         42.13576        26.62130        -2.46475
H         41.64592        25.93041        -2.97216
O         43.98668        47.33386         2.04736
H         43.62369        48.07543         2.59291
O         44.34897        27.88612         2.26374
H         45.04482        28.44839         2.68481
O         41.63383        33.96847        -3.70361
H         42.59092        33.90563        -3.93786
O         52.56723        46.12471        -2.42737
H         53.35639        45.63557        -2.74265
O         40.72362        25.45387         0.76334
H         41.30083        25.99022         1.34760
O         33.89663        32.84724         1.84401
H         33.82027        33.68657         2.34616
O         35.17432        27.49675        -3.06834
H         34.93266        26.62757        -3.46584
O         39.75342        21.86429        -2.85802
H         40.50806        21.24455        -2.75213
O         40.75888        37.39084         0.40716
H         40.05296        36.94568         0.92157
O         46.78062        24.74278         3.31731
H         45.90353        24.30294         3.33941
O         45.10640        40.08751        -3.25834
H         45.74176        40.73580        -3.64484
O         46.59538        42.58924        -3.18052
H         45.94681        43.27570        -3.44980
O         43.08532        49.88180         2.87276
H         43.48563        50.33040         3.64660
O         40.91460        24.34144        -2.74090
H         40.45663        23.55508        -3.13912
O         42.12118        47.00233        -2.37010
H         41.32308        47.28726        -2.87746
O         42.62542        43.85518         0.88278
H         43.31171        44.32619         1.40444
O         38.17172        33.16970         0.52873
H         37.56571        32.57339         1.01810
O         37.48117        44.63163        -2.89674
H         38.23198        45.17079        -3.24888
O         40.13682        44.51209         0.67712
H         40.90675        44.02925         1.07078
O         46.85795        29.42433         2.71115
H         47.56114        29.06539         3.29487
O         30.16526        35.59721         3.42649
H         29.83733        34.85737         3.99307
O         41.71634        44.18952        -2.66242
H         40.91427        43.93155        -3.16281
O         34.95029        46.09764        -2.29443
H         35.67450        45.63491        -2.78617
O         40.31276        31.05992        -3.38797
H         39.78139        31.70737        -3.90530
O         41.13014        37.97809        -3.17667
H         41.86605        38.35803        -3.70029
O         32.49158        44.63904        -1.75972
H         33.21434        45.16167        -2.19064
O         32.46823        29.11600         2.05000
H         31.81674        29.47186         2.69202
H         27.14131        26.89190         1.02819
H         26.08020        28.98992         1.72790
H         26.23474        31.39331         2.25763
H         26.29423        33.26928         2.68844
H         26.24861        35.63976         2.34715
H         26.14886        37.49739         2.03556
H         26.09295        39.90517         1.87752
H         26.10871        41.80359         2.02507
H         26.13600        44.25299         2.08914
H         27.35079        46.39491         1.84379
H         29.09943        25.64908         0.24721
H         29.42912        47.63958         1.39090
H         32.23332        23.71854        -1.94732
H         30.52646        24.75813        -0.48729
H         33.25325        49.68399         1.23666
H         31.18074        48.46595         1.62566
H         34.87358        22.39637        -2.98420
H         34.66798        50.74374         0.49344
H         36.96571        21.18230        -2.33395
H         36.74904        51.97854         0.30375
H         40.06929        19.31956         0.33284
H         38.17613        20.32633        -0.86470
H         40.60953        53.99407         0.69588
H         38.45273        52.98061         0.08111
H         42.52225        19.33267         0.84284
H         43.03196        53.79370         1.26466
H         44.61948        20.57677         1.19009
H         44.70359        52.31130         2.29599
H         48.31257        22.81640         1.60794
H         46.36771        21.55770         0.85471
H         48.43683        49.74823         2.01605
H         46.33673        50.82333         2.80300
H         49.65626        23.84576         2.61820
H         50.02391        49.76614         0.46722
H         51.77472        25.05107         2.71966
H         52.15385        48.67941        -0.10139
H         55.54800        27.14633         2.73228
H         53.40906        25.94357         2.70955
H         55.88039        46.59009         0.03264
H         53.87386        47.83304        -0.57740
H         56.84221        29.21610         2.42377
H         56.94382        31.61090         1.89287
H         56.99611        33.45686         1.52949
H         57.05548        35.84182         1.11552
H         57.08805        37.71207         0.86928
H         57.11709        40.11922         0.59054
H         57.12177        42.01919         0.45508
H         57.09185        44.47276         0.28693
