         300
 CSIRO Nanostructure Databank - Neutral Graphene Oxide Data Set
C         30.71823        31.25128         1.44703
C         30.67172        32.48104         1.59025
C         30.49689        35.91509         1.55373
C         30.41471        37.09233         1.19862
C         30.62030        40.29642         1.34569
C         30.68640        41.51649         1.46842
C         32.86587        28.60955        -0.09552
C         31.91534        29.08426         0.54401
C         33.04206        31.33450         0.61223
C         31.79178        30.23689         1.43804
C         32.92370        32.81781         0.74491
C         31.59707        33.50371         1.06179
C         32.78871        35.82922         0.74973
C         31.53957        34.99446         1.06642
C         32.65227        37.11106         0.30478
C         31.34452        37.98721         0.43768
C         32.85977        40.08991         0.52154
C         31.70970        39.27276         1.20788
C         33.12133        41.54596         0.87380
C         31.78290        42.46156         1.70283
C         32.89814        44.29218         0.44274
C         31.94808        43.74638         1.00782
C         35.38377        27.28843        -1.33500
C         35.14145        28.70808        -1.36187
C         33.86219        29.32645        -0.91512
C         35.13562        31.60446        -1.00247
C         33.90659        30.78800        -0.50097
C         35.18572        33.05067        -0.44098
C         34.01000        33.72211         0.20598
C         35.44550        35.75038         0.98377
C         34.07385        35.03638         1.05445
C         35.56848        37.23998         1.18316
C         33.76866        37.82286        -0.40354
C         35.32740        39.92778        -0.52638
C         33.93155        39.33800        -0.21004
C         35.32428        41.57030        -0.72393
C         34.17125        42.26943         0.09170
C         35.27770        44.49675        -0.47941
C         33.95364        43.73676        -0.45228
C         35.42787        45.88395        -0.03150
C         37.62256        27.22837        -0.55836
C         36.37929        26.57014        -1.15183
C         37.65829        28.61661        -1.27635
C         36.34985        29.38282        -1.36014
C         37.64327        31.64455        -1.45208
C         36.45343        30.79738        -0.81943
C         37.78065        32.93230        -0.63272
C         36.53961        33.63372        -0.15934
C         37.71539        35.92114        -0.28031
C         36.61565        35.05734         0.34056
C         37.91830        37.18052         0.57337
C         36.60024        37.96556         0.63508
C         37.81880        40.10145        -0.06539
C         36.46716        39.49039         0.46391
C         37.80661        41.63186         0.02532
C         36.64542        42.28735        -0.24253
C         37.92201        44.60687         0.03534
C         36.63312        43.78723        -0.31422
C         37.72865        46.03037         0.67479
C         36.43966        46.55638         0.19966
C         40.24393        24.42332        -0.39255
C         39.21281        25.15862        -0.54072
C         40.19149        27.28048        -0.42568
C         38.93188        26.50887        -0.69076
C         40.20782        28.76411        -0.66384
C         38.95980        29.37087        -1.25365
C         40.28136        31.60944        -1.51853
C         38.97800        30.85855        -1.51151
C         40.24137        33.16991        -1.58714
C         39.06329        33.72182        -0.74687
C         40.21112        36.04285        -0.90286
C         39.03634        35.19093        -0.48960
C         40.18298        37.45789        -0.46679
C         39.10906        38.00290         0.14647
C         40.50311        40.63383        -0.41820
C         38.88156        39.36885         0.74472
C         40.34950        41.76308         0.45846
C         39.01728        42.36153         0.55979
C         40.29128        44.60622         1.14864
C         38.98788        43.85788         0.81944
C         40.32755        46.10300         0.98653
C         38.98089        46.80044         0.95321
C         39.91721        48.87540        -0.07564
C         39.08993        48.20728         0.57367
C         42.81275        24.55954         0.16151
C         41.40987        25.10817         0.32043
C         42.75481        27.37998        -0.21842
C         41.50923        26.52332        -0.51102
C         42.70181        28.82470        -0.45545
C         41.52143        29.45269        -0.78762
C         42.37415        31.66828        -0.06552
C         41.61008        30.92230        -1.16167
C         42.19246        33.12984        -0.08423
C         41.46541        33.84026        -0.97378
C         42.79173        36.15356        -0.55662
C         41.54636        35.34104        -1.04129
C         42.69119        37.62208        -1.00596
C         41.33455        38.30278        -0.97816
C         42.93752        40.82305        -0.80807
C         41.36562        39.53522        -0.12229
C         42.89407        41.74306         0.44912
C         41.61569        42.38277         0.93959
C         42.94272        44.59256         1.24429
C         41.60051        43.85451         1.29057
C         42.90716        46.14823         1.27137
C         41.51765        46.75623         1.16336
C         42.30377        48.52469        -0.95427
C         41.34719        48.77807         0.01861
C         43.78841        25.32790         0.19699
C         45.29306        27.41665        -0.20473
C         43.96244        26.74040        -0.01232
C         45.21338        28.95374         0.19231
C         43.92927        29.65745        -0.15211
C         44.91569        31.85770         0.87838
C         43.67894        31.05735         0.39734
C         45.20831        33.24542         0.36113
C         44.18498        34.13455         0.18153
C         45.57222        35.77491        -1.10457
C         44.15343        35.35074        -0.68310
C         45.76662        37.22807        -1.34154
C         43.76878        38.41491        -1.30050
C         45.31698        40.26200        -0.57780
C         44.06146        39.79680        -0.89263
C         45.41658        41.66990        -0.00488
C         44.23605        42.41177         0.54399
C         45.41849        44.69840         0.37612
C         44.22608        43.89169         0.84226
C         45.21718        46.16693         0.03311
C         43.85030        46.71852         0.07439
C         43.30490        47.76639        -0.54687
C         47.32704        27.44556         1.23463
C         46.40957        26.89295         0.63242
C         47.34094        28.80950         1.78492
C         46.13230        29.58295         1.24228
C         47.47174        31.83752         1.60834
C         46.12843        31.09866         1.34032
C         47.64883        33.12171         0.80029
C         46.57596        33.71748         0.18112
C         47.99164        35.79790        -0.26038
C         46.75399        35.00643        -0.55042
C         48.01831        37.27399        -0.57935
C         46.74346        38.00345        -0.80746
C         47.91018        40.27104        -0.59687
C         46.61598        39.45500        -0.31653
C         47.92800        41.75352        -0.30723
C         46.61715        42.48747        -0.39824
C         47.97613        44.76953        -0.24634
C         46.61983        43.97506        -0.22814
C         47.46947        46.05764        -0.88289
C         46.36625        46.59865        -0.78560
C         49.86623        29.05375         2.16229
C         48.57875        29.55296         2.01975
C         50.02548        31.64782         1.73602
C         48.69675        30.94269         1.32948
C         50.08765        33.10421         1.28821
C         48.96501        33.77645         0.89479
C         50.34646        35.97197         0.65023
C         48.95044        35.30803         0.81674
C         50.47240        37.39299         0.16679
C         49.27140        38.05503        -0.43796
C         50.50242        40.29534        -0.11282
C         49.23265        39.56299        -0.57057
C         50.53190        41.76557        -0.65717
C         49.20966        42.51941        -0.39527
C         50.48634        44.51089        -0.71200
C         49.09774        44.00318        -0.95752
C         51.07138        29.44727         2.11611
C         52.45219        31.63599         1.67391
C         51.31225        30.74249         1.33469
C         52.45653        32.86353         1.60640
C         51.39159        33.91572         1.61359
C         52.72342        35.92042         0.52638
C         51.54923        34.98396         0.53226
C         52.83627        37.02915        -0.00633
C         51.78844        38.00924        -0.32111
C         52.90356        40.44892        -0.44909
C         51.79672        39.49035        -0.52444
C         52.94001        41.68025        -0.39053
C         51.79384        42.58390        -0.02938
C         51.58082        43.94802        -0.61537
O         42.99926        33.80602         0.84773
O         44.69074        35.06482        -2.00866
O         45.75261        45.74387         1.34323
O         36.10780        44.23217        -1.62040
O         33.62476        31.98504         1.75802
O         46.34718        43.35869        -1.52632
O         47.91320        34.97961        -1.45407
O         36.44976        35.05757         1.79009
O         39.44302        34.26316         0.55591
O         31.15310        34.23354        -0.11542
O         46.14297        29.01295         2.58341
O         48.63396        39.98498        -1.83291
O         34.25741        33.90364        -1.20258
O         48.94490        37.45243        -1.72558
O         38.63257        42.97258         1.87737
O         34.33159        42.00905         1.52154
O         35.17289        41.79640        -2.06852
O         40.03478        28.20403         0.69269
O         48.64063        42.21060         0.90391
O         45.09464        29.71671        -1.04581
O         42.54488        41.34337        -1.86605
O         45.13691        31.60531         2.29719
O         43.88357        44.10434         2.24296
O         40.84999        35.86709        -2.20391
O         42.50118        31.06720         1.25007
O         32.84348        39.99062        -0.93454
O         48.38426        35.75297         2.06652
O         39.12299        39.60110         1.93167
O         42.40874        41.46238         1.79877
O         38.49822        28.64027        -2.45149
O         41.60847        48.14964         1.29506
O         51.68382        38.59515        -1.64033
O         40.81416        44.19321         2.45609
O         33.17275        30.33717        -1.68437
O         39.72518        31.07631        -2.75611
O         34.49039        37.18598        -1.15951
O         44.74737        37.79215        -2.06656
O         37.34088        32.80313         0.73442
O         38.09631        46.31656         2.01652
O         45.16143        41.69231         1.44043
O         33.89816        34.64772         2.42909
H         34.78627        34.41837         2.78904
O         37.36817        32.06438        -2.78734
H         37.20060        31.27762        -3.34798
O         38.25964        36.77611         1.91543
H         38.59348        37.56670         2.39625
O         42.61551        36.35725         0.86845
H         42.38170        35.50028         1.29918
O         50.49878        40.27251         1.31462
H         49.94553        41.01975         1.64758
O         33.43771        43.64315        -1.75719
H         34.04322        43.02063        -2.26108
O         51.25318        34.51862         2.87975
H         51.14952        33.80409         3.54522
O         34.58575        37.84559         1.89099
H         34.89271        38.76236         2.11843
O         47.49017        32.19042         3.00291
H         46.55062        32.30953         3.28728
O         32.10740        42.51000         3.04464
H         32.86139        43.12110         3.17585
O         37.27143        36.29724        -1.59329
H         36.44194        36.83109        -1.52962
O         32.12771        38.89175         2.50870
H         32.04231        39.65542         3.11699
O         48.83195        43.91945        -2.33524
H         49.59129        43.47202        -2.77133
O         36.15984        40.07278         1.74396
H         36.98155        40.07335         2.28830
O         41.62991        26.16067        -1.89235
H         42.42481        25.59551        -2.00372
O         41.06062        38.60974        -2.35049
H         40.94076        37.75273        -2.82267
O         41.11783        25.32592         1.65516
H         41.15346        24.48441         2.15347
O         41.67827        39.18728         1.13974
H         41.57149        39.93738         1.78036
O         34.97316        31.72847        -2.41339
H         34.27553        32.40125        -2.58106
O         32.27509        29.96091         2.68900
H         32.45546        30.80134         3.16282
O         50.49576        37.07967         1.58933
H         49.06942        36.27691         2.54535
O         40.06412        33.55695        -2.93900
H         39.44077        32.91896        -3.35883
O         38.05197        39.67820        -1.40808
H         37.19597        39.63222        -1.91231
O         51.65648        42.65021         1.35739
H         52.38707        43.17832         1.73814
O         46.61878        39.26577         1.13100
H         46.12958        39.99857         1.57309
O         43.44319        46.60532         2.48520
H         44.24410        46.06779         2.69126
O         51.47222        34.31460        -0.71506
H         51.65118        34.94449        -1.44427
O         30.84011        38.32436        -0.82321
H         30.52737        37.51713        -1.27974
O         35.57229        39.40956        -1.83666
H         35.25083        40.14274        -2.44531
O         45.60633        27.29938        -1.58415
H         45.57876        28.19996        -1.98673
O         50.09801        31.71386         3.17145
H         49.20529        31.97461         3.50976
O         38.57108        44.88278        -1.22827
H         37.85418        44.99939        -1.89973
O         36.69384        30.56216         0.58011
H         36.85451        29.60833         0.76020
O         40.11273        40.75749        -1.69169
H         39.63810        41.59569        -1.85290
O         48.64092        30.67828        -0.07561
H         49.53278        30.39391        -0.39346
O         48.39601        45.05007         1.05826
H         47.67693        45.54028         1.52327
O         37.36921        27.50926         0.81567
H         37.54904        26.71221         1.35733
O         42.44706        31.04576        -2.33220
H         41.89230        30.85225        -3.12021
O         50.73219        41.73670        -2.07069
H         50.16634        41.02778        -2.45888
O         51.31266        30.44391        -0.03668
H         52.18193        30.07389        -0.29645
