         630
 CSIRO Nanostructure Databank - Neutral Graphene Oxide Data Set
C         22.98773        27.35727        -0.61121
C         22.95929        28.72753        -0.45283
C         22.90262        31.63905        -0.18561
C         22.87827        33.01498        -0.03012
C         22.80724        36.00610         0.14549
C         22.85883        37.36451         0.11963
C         22.92297        40.29981        -0.00509
C         22.92367        41.70692         0.07475
C         22.93480        44.72022         0.00663
C         23.01121        46.07854         0.01386
C         25.44198        24.56285        -0.82628
C         24.25125        25.23903        -0.79739
C         25.43513        27.36484        -0.41526
C         24.21728        26.65337        -0.60769
C         25.39861        28.78612        -0.22170
C         24.15190        29.47564        -0.26211
C         25.32806        31.63935         0.08379
C         24.11668        30.91647        -0.11767
C         25.30501        33.06686         0.22490
C         24.05982        33.74738         0.19759
C         25.33614        35.98235         0.43444
C         23.99670        35.20567         0.44928
C         25.30036        37.40882         0.10729
C         24.10407        38.10587         0.10251
C         25.36785        40.28491         0.02268
C         24.10420        39.56895         0.00535
C         25.36077        41.73091         0.21273
C         24.10291        42.42267         0.23325
C         25.39299        44.62440         0.64523
C         24.06155        43.89358         0.46424
C         25.43745        46.05919         0.35131
C         24.25775        46.78232         0.22447
C         25.43902        48.90832         0.57147
C         24.28986        48.22500         0.32066
C         28.01082        23.14519        -1.06028
C         27.93176        24.55252        -0.73916
C         26.69228        25.24529        -0.66526
C         27.90295        27.37519        -0.23261
C         26.67716        26.66057        -0.43859
C         27.87124        28.79072         0.04439
C         26.61221        29.50333         0.01552
C         27.76865        31.64299         0.42137
C         26.56772        30.91794         0.17077
C         27.78282        33.04604         0.38716
C         26.55442        33.80199         0.29031
C         27.79357        35.95185         0.07111
C         26.57568        35.21255         0.24131
C         27.83142        37.34516        -0.07101
C         26.54650        38.08158        -0.40084
C         27.83940        40.25546        -0.20905
C         26.56009        39.56519        -0.10435
C         27.84598        41.74460         0.10497
C         26.57929        42.44107         0.38084
C         27.87328        44.54819         0.65954
C         26.64937        43.85052         0.57243
C         27.95872        45.96867         0.59397
C         26.73732        46.72390         0.26972
C         27.97350        48.80577         1.09172
C         26.75418        48.25875         0.45649
C         27.90228        50.00891         1.80854
C         30.49565        23.10874        -0.79605
C         29.18358        22.46950        -1.14184
C         30.38236        24.61013        -0.73748
C         29.16524        25.27288        -0.57080
C         30.36712        27.40061        -0.02471
C         29.14093        26.69583        -0.28527
C         30.33406        28.79284         0.34323
C         29.06654        29.45952         0.36676
C         30.29247        31.65011         0.92601
C         28.99303        30.88412         0.73491
C         30.23940        33.09900         0.66217
C         29.04455        33.74544         0.41600
C         30.33872        35.92148        -0.06969
C         29.03634        35.16629        -0.00928
C         30.31407        37.38517        -0.00725
C         29.08474        38.07046        -0.08508
C         30.32338        40.21097        -0.00224
C         29.11418        39.51054        -0.07947
C         30.37572        41.65065         0.26873
C         29.10741        42.32411         0.63215
C         30.40100        44.52900         0.85301
C         29.12393        43.81317         0.88113
C         30.42692        45.91317         0.88747
C         29.18050        46.64869         0.76862
C         30.40121        48.63909         1.57912
C         29.19494        48.06207         1.05970
C         30.22304        49.77234         2.39328
C         29.01139        50.46028         2.51638
C         32.77196        21.23288        -3.24266
C         31.64562        21.54514        -2.47957
C         32.93209        23.29168        -1.40293
C         31.69631        22.63755        -1.60723
C         32.92477        24.71969        -1.01415
C         31.61877        25.39384        -0.75363
C         32.84653        27.39033         0.06532
C         31.60738        26.74399        -0.17650
C         32.81321        28.78048         0.43669
C         31.56360        29.47934         0.56118
C         32.77043        31.61225         0.81433
C         31.58333        30.92090         0.77175
C         32.81707        33.08817         0.91409
C         31.50241        33.85003         0.76596
C         32.78240        35.91146         0.27377
C         31.57166        35.23905         0.33318
C         32.78755        37.34895         0.08262
C         31.56222        38.06716         0.05216
C         32.79701        40.19557         0.02462
C         31.57525        39.49924         0.02055
C         32.79187        41.68482        -0.20557
C         31.55338        42.34099         0.34039
C         32.89227        44.48801         0.64364
C         31.65209        43.70573         1.00684
C         32.91117        45.89659         0.79263
C         31.69101        46.63144         1.01108
C         32.97642        48.71930         1.33374
C         31.71503        48.00548         1.34670
C         33.10534        50.14629         1.61138
C         32.19575        50.88020         2.40349
C         33.21260        52.99598         1.87306
C         32.21438        52.27689         2.51101
C         36.34274        19.82271        -4.24935
C         36.13663        21.01690        -3.53108
C         33.99365        21.86505        -2.97715
C         35.45172        23.34154        -1.41540
C         34.14476        22.81306        -1.95015
C         35.38731        24.69053        -0.76231
C         34.18699        25.34292        -0.57583
C         35.30771        27.36100         0.26374
C         34.09945        26.69575        -0.05273
C         35.26851        28.76449         0.52724
C         34.04711        29.45687         0.59781
C         35.27003        31.63710         0.45735
C         34.07780        30.90162         1.01913
C         35.23260        32.99988         0.22680
C         34.03926        33.79203         0.47604
C         35.21110        35.88362        -0.31055
C         34.01855        35.16255         0.27503
C         35.24997        37.35463         0.00256
C         34.02251        38.05965         0.05273
C         35.26679        40.19868         0.02535
C         34.02283        39.49361         0.04747
C         35.27128        41.64385         0.08399
C         34.07732        42.36542         0.16769
C         35.32715        44.49020         0.27585
C         34.08637        43.78064         0.36609
C         35.34841        45.91021         0.39672
C         34.14726        46.61603         0.68650
C         35.40949        48.73902         0.73894
C         34.17002        48.03953         0.90558
C         35.44502        50.17691         0.80332
C         34.25328        50.88332         1.16965
C         35.45985        53.03154         0.83270
C         34.28293        52.30847         1.25631
C         35.47554        54.44745         0.73823
C         38.45429        19.54536        -3.11322
C         37.46202        19.06345        -3.99852
C         38.28343        20.80592        -2.46516
C         37.05164        21.52034        -2.59846
C         38.08497        23.55785        -1.49534
C         36.81212        22.71815        -1.70132
C         37.94105        24.69895        -0.50612
C         36.59376        25.17011         0.01866
C         37.71412        27.30102         0.76987
C         36.55796        26.65914         0.31900
C         37.72047        28.76025         0.89987
C         36.51519        29.47574         0.66340
C         37.73558        31.56993         0.34612
C         36.50964        30.89300         0.46674
C         37.78222        32.97594        -0.06113
C         36.45986        33.72085        -0.17070
C         37.70406        35.86489         0.08696
C         36.50615        35.18229        -0.04505
C         37.72234        37.32520         0.05809
C         36.47881        38.04297         0.01213
C         37.73112        40.18443        -0.05351
C         36.48312        39.48241         0.01803
C         37.73630        41.61384        -0.07865
C         36.52309        42.34262         0.05206
C         37.76912        44.46305        -0.13012
C         36.53583        43.76391         0.07564
C         37.78210        45.90780        -0.06640
C         36.59601        46.61009         0.23875
C         37.85914        48.71935         0.30368
C         36.62687        48.03623         0.41649
C         37.95511        50.15607         0.72630
C         36.64966        50.89178         0.62633
C         37.89072        53.03608         0.37335
C         36.66626        52.31534         0.59834
C         37.88810        54.45268         0.35220
C         36.64596        55.13332         0.49918
C         40.95122        16.74218        -3.31873
C         39.77192        17.44475        -3.41844
C         40.77930        19.38412        -2.29495
C         39.66361        18.77619        -2.93300
C         40.65212        20.69090        -1.75332
C         39.41763        21.39367        -1.77100
C         40.44502        23.26063        -0.51715
C         39.32827        22.71049        -1.23221
C         40.36162        24.60302         0.04813
C         39.06697        25.28340         0.03224
C         40.08039        26.96164         1.45792
C         38.95275        26.51874         0.79985
C         40.11601        29.05968         1.70474
C         38.90095        29.55378         1.08977
C         40.18305        31.62866         0.71285
C         38.93061        30.90588         0.69230
C         40.18334        32.99631         0.55454
C         38.98597        33.75715         0.26352
C         40.16717        35.92444         0.72247
C         38.94049        35.14369         0.30413
C         40.19754        37.35782         0.24408
C         38.94255        38.03365         0.04876
C         40.19305        40.16006        -0.23668
C         38.95068        39.46244        -0.08802
C         40.16997        41.55719        -0.40963
C         38.96366        42.31340        -0.28425
C         40.16983        44.46840        -0.86196
C         38.94630        43.73740        -0.36967
C         40.22537        45.92284        -0.47055
C         39.02596        46.61650        -0.21577
C         40.28977        48.74715        -0.22321
C         39.05863        48.03968        -0.03037
C         40.32398        50.19297        -0.15338
C         39.13558        50.90058         0.15642
C         40.33256        53.03035        -0.07238
C         39.12009        52.31341         0.14459
C         40.34588        54.45789         0.01368
C         39.13092        55.17928         0.20690
C         40.38450        57.27468         0.23469
C         39.18528        56.59689         0.29399
C         43.32302        16.61364        -2.63969
C         42.10183        17.34162        -2.73681
C         43.18036        19.24051        -1.60701
C         42.02602        18.66289        -2.22534
C         43.09392        20.54573        -1.02147
C         41.90825        21.42304        -1.36208
C         42.70591        22.96108         0.51627
C         41.63905        22.52885        -0.38807
C         42.69178        24.42188         0.91960
C         41.48907        25.20545         0.59974
C         42.57469        27.27469         1.48033
C         41.43263        26.54018         1.17104
C         42.61214        28.76320         1.91745
C         41.36806        29.53432         1.48337
C         42.70600        31.59266         1.15212
C         41.47457        30.82999         0.72960
C         42.66628        33.06424         1.24652
C         41.40593        33.77010         0.86789
C         42.67620        35.91059         0.54113
C         41.41825        35.16858         0.28321
C         42.66517        37.38917         0.73422
C         41.40134        38.04580         0.21548
C         42.69256        40.11610        -0.15129
C         41.44868        39.44747        -0.10298
C         42.73876        41.53016        -0.54187
C         41.42823        42.25603        -0.70108
C         42.72513        44.44987        -0.48361
C         41.42949        43.72975        -0.48226
C         42.70117        45.90691        -0.69961
C         41.46122        46.61149        -0.55303
C         42.70733        48.73204        -0.82041
C         41.48175        48.04288        -0.52165
C         42.74826        50.18054        -0.75717
C         41.53795        50.88973        -0.38639
C         42.78184        53.02523        -0.36337
C         41.55552        52.31927        -0.28641
C         42.81734        54.43460        -0.22440
C         41.58848        55.15538        -0.05799
C         42.85749        57.25206         0.06823
C         41.61153        56.57262         0.07670
C         44.42586        17.16985        -2.04180
C         45.54011        19.08754        -0.88766
C         44.38367        18.49019        -1.50257
C         45.43593        20.37655        -0.29875
C         44.17677        21.06233        -0.32925
C         45.26323        23.07055         0.74583
C         44.01879        22.19763         0.64845
C         45.19004        24.47367         1.11730
C         43.96120        25.12409         1.20439
C         45.16888        27.34319         1.63786
C         43.87111        26.55319         1.56706
C         45.12104        28.80651         1.41784
C         43.90123        29.46275         1.41911
C         45.15492        31.60300         0.77718
C         43.88647        30.89825         1.22234
C         45.19969        33.07777         1.03258
C         43.96483        33.85622         1.33279
C         45.20367        35.88455         0.37602
C         43.90411        35.15064         0.49831
C         45.16642        37.35339         0.29759
C         43.95580        38.05187         0.30739
C         45.18906        40.16048        -0.01421
C         43.94235        39.44890         0.05892
C         45.20030        41.60685        -0.20425
C         43.99858        42.29470        -0.37620
C         45.18984        44.39696        -0.79539
C         44.00111        43.70663        -0.58422
C         45.11409        45.79582        -1.37174
C         43.88990        46.57834        -0.94370
C         45.11070        48.66546        -1.52110
C         43.88303        47.99483        -1.06107
C         45.11642        50.18982        -1.53642
C         43.93948        50.87316        -0.97572
C         45.25304        53.07142        -0.82430
C         44.07120        52.25128        -0.38105
C         45.29615        54.42774        -0.52129
C         44.06163        55.14962        -0.23921
C         44.04422        56.55314        -0.07872
C         47.89769        19.03121        -0.29157
C         46.79171        18.41565        -0.82722
C         47.84696        20.36228         0.21360
C         46.58856        21.02672         0.25722
C         47.67482        23.07995         1.24811
C         46.47666        22.40067         0.71056
C         47.68829        24.54768         1.31186
C         46.43984        25.22684         1.27938
C         47.65776        27.36322         1.46706
C         46.43663        26.62936         1.40611
C         47.63399        28.79775         1.46093
C         46.39539        29.51107         1.31127
C         47.65015        31.63459         1.19768
C         46.42391        30.90319         1.16286
C         47.66105        33.06033         1.00766
C         46.41202        33.77524         0.93469
C         47.65294        35.91449         0.66380
C         46.43665        35.20004         0.76632
C         47.63021        37.31247         0.37582
C         46.41419        38.04873         0.25670
C         47.66617        40.24330         0.42346
C         46.39779        39.47342         0.14758
C         47.67595        41.66405        -0.08778
C         46.44212        42.32842        -0.28628
C         47.67685        44.38382        -0.84791
C         46.43706        43.71119        -0.65727
C         47.66007        45.78009        -1.34141
C         46.40442        46.58056        -1.26899
C         47.67900        48.66748        -1.84469
C         46.40569        47.93112        -1.44709
C         47.69845        50.16239        -1.56405
C         46.44024        50.90704        -1.64647
C         47.77182        53.03692        -1.05323
C         46.46968        52.40825        -1.31676
C         47.74867        54.42168        -0.69560
C         46.57120        55.10331        -0.53218
C         50.34013        20.47617         0.39502
C         49.07406        21.02300         0.59945
C         50.23577        23.16474         1.31575
C         49.00808        22.35738         1.21537
C         50.17717        24.55284         1.52560
C         48.90728        25.24705         1.48152
C         50.12641        27.40562         1.72992
C         48.90144        26.67279         1.54003
C         50.08388        28.80598         1.75598
C         48.86115        29.51326         1.55407
C         50.10999        31.67055         1.37871
C         48.86663        30.94366         1.41989
C         50.11836        33.06943         1.09693
C         48.88259        33.78176         0.95299
C         50.14538        35.89979         0.64673
C         48.89830        35.19933         0.76004
C         50.16666        37.29937         0.35525
C         48.90031        37.99365         0.09112
C         50.18327        40.21801         0.15991
C         48.90643        39.49983        -0.01247
C         50.16412        41.65884         0.03325
C         48.90259        42.34352        -0.22180
C         50.16407        44.45214        -0.67305
C         48.90398        43.72685        -0.60995
C         50.19303        45.82659        -0.96995
C         48.96528        46.52963        -1.38209
C         50.21316        48.66767        -1.75155
C         48.93272        47.98833        -1.36026
C         50.18030        50.14818        -1.45808
C         48.92327        50.85124        -1.44186
C         50.22988        52.94766        -1.15644
C         48.95387        52.29427        -1.22857
C         51.50736        21.14481         0.80447
C         52.66108        23.15702         1.75121
C         51.47887        22.46982         1.26465
C         52.62885        24.56985         1.91333
C         51.39578        25.29813         1.72797
C         52.62806        27.42988         2.06348
C         51.38524        26.69721         1.88227
C         52.60975        28.82722         1.99229
C         51.31162        29.58448         2.14128
C         52.55482        31.65998         1.42467
C         51.32957        30.98244         1.57595
C         52.56133        33.06101         1.18723
C         51.35566        33.77645         1.03065
C         52.61003        35.92246         0.70922
C         51.37323        35.20379         0.80779
C         52.61960        37.33551         0.50127
C         51.36922        38.02979         0.34216
C         52.61822        40.18259         0.50759
C         51.35418        39.47473         0.26963
C         52.62226        41.70199         0.38565
C         51.36476        42.38586         0.01617
C         52.61086        44.50427        -0.31095
C         51.38718        43.77764        -0.33125
C         52.63662        45.88704        -0.61650
C         51.41135        46.57608        -0.91380
C         52.65486        48.67942        -1.21412
C         51.43334        47.96208        -1.20967
C         52.65116        50.10468        -1.42086
C         51.41053        50.83009        -1.38849
C         51.40400        52.26038        -1.25075
C         54.80460        23.05782         2.86827
C         53.78614        22.41891         2.17516
C         54.77227        24.45358         2.98899
C         53.78987        25.25581         2.37880
C         55.11703        27.39270         2.21269
C         53.89456        26.71404         2.25948
C         55.15190        28.90976         2.14321
C         53.82519        29.57118         1.84290
C         54.98776        31.56797         0.84857
C         53.80021        30.91571         1.50778
C         55.12025        33.04009         1.15166
C         53.82785        33.81202         1.22843
C         55.07644        35.87631         0.62189
C         53.84742        35.22968         0.85069
C         55.08966        37.29477         0.41439
C         53.86724        38.03088         0.42719
C         55.08957        40.18701         0.27535
C         53.89482        39.46738         0.35337
C         55.11749        41.63493         0.10725
C         53.91601        42.34912         0.11392
C         55.20275        44.51717        -0.36422
C         53.87260        43.81028         0.01567
C         55.11531        45.87489        -0.89064
C         53.87960        46.59725        -0.79175
C         55.21880        48.68278        -1.12254
C         53.88069        47.98099        -1.05375
C         55.09905        50.11738        -1.54793
C         53.90832        50.76857        -1.62018
C         57.95078        24.91956         2.98481
C         56.71161        25.58870         3.00505
C         57.59003        27.40462         1.69403
C         56.44755        26.77814         2.30288
C         57.52580        28.75301         1.20258
C         56.31293        29.49432         1.34559
C         57.46845        31.51420         0.52724
C         56.28927        30.83166         0.97037
C         57.47548        32.94997         0.35196
C         56.32086        33.72762         0.65568
C         57.52303        35.80968         0.15961
C         56.31443        35.13025         0.52342
C         57.53999        37.24646         0.07980
C         56.33309        37.97303         0.27457
C         57.66300        40.16298        -0.16452
C         56.34459        39.43214         0.34345
C         57.51827        41.53515        -0.65740
C         56.34918        42.29155        -0.35226
C         57.40360        44.24639        -1.46517
C         56.33634        43.66295        -0.71764
C         57.32940        45.62122        -1.87278
C         56.22232        46.41992        -1.56900
C         57.61653        48.43206        -1.92982
C         56.20504        47.88127        -2.00489
C         58.99429        25.45102         2.25293
C         59.94264        27.31254         0.95475
C         58.83444        26.71264         1.62786
C         59.86409        28.58938         0.46756
C         58.67569        29.36656         0.63391
C         59.82085        31.46205        -0.13677
C         58.65883        30.77273         0.32642
C         59.82392        32.82344        -0.31539
C         58.66927        33.61547        -0.03887
C         59.88972        35.75716        -0.45894
C         58.69538        35.05358        -0.11447
C         59.90372        37.12226        -0.58656
C         58.73820        37.91334        -0.34902
C         59.73143        39.91257        -1.46456
C         58.73638        39.30667        -0.65080
C         59.68535        41.24780        -1.78893
C         58.58881        42.09452        -1.41043
C         59.67367        44.11550        -2.43968
C         58.54704        43.46660        -1.79735
C         59.64924        45.41255        -2.81875
C         58.40420        46.24297        -2.73843
C         58.65196        47.66607        -2.29048
O         42.27536        23.35722         1.86883
O         46.37947        51.91497        -2.70997
O         57.33630        39.99211         1.24224
O         24.65606        35.62197         1.68446
O         41.73357        33.58834         2.28404
O         44.51889        26.86862         2.87968
O         41.99987        44.10602         0.79587
O         29.02822        42.80089         2.00676
O         48.34260        45.93250        -2.64525
O         29.52120        31.18897         2.08222
O         44.58595        35.14695        -0.81511
O         52.57662        41.04462         1.69842
O         48.19605        22.41449         2.45085
O         37.15901        33.22693        -1.36456
O         54.72153        44.44214         1.01817
O         39.93796        27.90324         2.47742
O         27.93137        41.28549        -1.28191
O         31.27369        50.20770         3.21060
O         26.94485        47.64039        -0.85211
O         34.99330        21.69487        -3.92947
O         32.15782        33.64617         2.08811
O         54.63761        33.48681         2.43921
O         32.26276        25.45032        -2.13054
O         55.72312        25.04804         3.83720
O         36.11173        22.36052        -0.47241
O         48.82862        38.71650        -1.22564
O         44.86627        49.41468        -2.75859
O         24.55157        44.26979         1.79788
O         42.13460        41.78754        -1.88399
O         29.73385        35.35500        -1.30118
O         36.46425        24.48112         1.31519
H         36.39069        23.51788         1.10621
O         57.86290        46.32578        -4.11303
H         57.72850        45.40694        -4.42902
O         47.68263        48.55193        -3.32591
H         47.76695        47.57905        -3.50238
O         50.35367        48.57461        -3.22084
H         49.46896        48.81915        -3.59819
O         26.44791        38.01006        -1.87643
H         27.20050        38.52010        -2.24681
O         34.29070        30.90882         2.47790
H         33.47729        30.55864         2.90000
O         55.43087        29.32378         3.53212
H         56.23920        28.85001         3.82371
O         44.93905        45.57492        -2.81203
H         44.90981        46.45291        -3.25004
O         44.11669        34.35052         2.69311
H         43.20358        34.44736         3.05826
O         30.80823        22.69232         0.59249
H         30.01723        22.88261         1.14073
O         43.97308        21.50090         1.93296
H         43.48771        22.09426         2.55465
O         45.06329        31.46962        -0.70843
H         45.83947        31.93599        -1.08847
O         42.66573        28.80069         3.36072
H         43.35503        28.14926         3.63961
O         55.80656        48.67331         0.21251
H         55.17527        49.10239         0.82694
O         41.70462        30.47411        -0.68248
H         42.01016        31.27586        -1.15781
O         51.18684        29.78669         3.60588
H         52.01419        30.21847         3.91113
O         55.74173        47.96560        -3.36519
H         56.39713        47.47506        -3.92228
O         31.77002        43.39860         2.44230
H         30.88148        43.07036         2.72484
O         32.71013        41.85598        -1.67460
H         31.93417        41.34213        -1.98661
O         41.33009        35.00179        -1.17104
H         42.23797        35.05061        -1.54368
O         42.34136        22.11282        -2.61680
H         42.38987        21.42588        -3.31661
O         47.78040        40.31917         1.88393
H         47.00800        40.81840         2.22372
O         54.66821        31.53958        -0.59159
H         54.65669        30.60214        -0.87927
O         44.38936        51.97943         1.06216
H         44.29005        52.83055         1.54201
O         40.21185        35.98102         2.18324
H         39.36072        36.35159         2.49887
O         40.11489        44.42989        -2.32322
H         39.27443        44.84637        -2.60744
O         38.29816        24.19093        -2.80429
H         39.15690        24.66370        -2.77426
O         35.00718        35.79822        -1.77239
H         35.86036        36.01483        -2.20551
O         42.60204        37.59420         2.20565
H         41.81240        37.08321         2.51672
O         38.23204        50.09680         2.19057
H         38.29087        51.02347         2.50845
H         22.05140        26.79897        -0.75388
H         21.98715        29.23679        -0.47287
H         21.95093        31.11678        -0.34607
H         21.91029        33.53277        -0.06119
H         21.84813        35.50272        -0.04124
H         21.92029        37.91110        -0.04451
H         21.94999        39.79362        -0.04648
H         21.95782        42.23031         0.07978
H         22.01047        44.22919        -0.33017
H         22.12850        46.67509        -0.26099
H         25.42926        23.47544        -0.97593
H         23.30297        24.69788        -0.92776
H         25.38733        49.98054         0.80859
H         23.32738        48.75784         0.33154
H         27.08132        22.59658        -1.26719
H         26.95980        50.56837         1.86642
H         29.16531        21.39093        -1.35533
H         28.95089        51.34435         3.16311
H         32.71379        20.49616        -4.05401
H         30.70531        21.00661        -2.65784
H         33.22292        54.09033         1.95353
H         31.45103        52.78165         3.11670
H         35.58778        19.50414        -4.97897
H         34.54336        55.01676         0.85249
H         37.59935        18.11845        -4.53730
H         36.60769        56.22832         0.43169
H         41.01469        15.70877        -3.68806
H         38.90179        16.94712        -3.86535
H         40.40362        58.37039         0.32354
H         38.26194        57.17475         0.43249
H         43.36589        15.59162        -3.04270
H         42.87349        58.34551         0.18015
H         45.34767        16.57775        -1.97294
H         44.98506        57.11903        -0.08692
H         48.84594        18.47856        -0.27147
H         46.89521        17.39697        -1.22282
H         48.69126        54.97200        -0.57492
H         46.61666        56.17532        -0.30106
H         50.45242        19.48042        -0.05433
H         50.26891        54.03813        -1.03756
H         52.46855        20.62301         0.70205
H         52.35282        52.80934        -1.18926
H         55.61681        22.48842         3.33765
H         53.80335        21.32645         2.06769
H         56.02894        50.67544        -1.73224
H         53.90824        51.83485        -1.88825
H         58.06522        23.98542         3.54943
H         57.77581        49.47127        -1.60556
H         59.96459        24.93815         2.19863
H         60.87597        26.73884         0.86251
H         60.74265        29.02728        -0.02339
H         60.74474        30.90502        -0.34037
H         60.74945        33.30314        -0.65986
H         60.82093        35.20399        -0.63737
H         60.84565        37.61868        -0.85594
H         60.56595        39.30698        -1.84324
H         60.49389        41.65932        -2.40612
H         60.60410        43.54681        -2.57472
H         60.53900        45.86921        -3.27729
H         59.68385        48.04856        -2.27305
