         314
 CSIRO Nanostructure Databank - Neutral Graphene Oxide Data Set
C         30.46550        31.47346        -0.47041
C         30.64721        32.68269        -0.71957
C         30.86275        35.83692         0.18055
C         30.90528        36.89844         0.82358
C         30.40824        40.51854         1.50908
C         30.61099        41.70865         1.73772
C         32.84661        28.74825         0.26964
C         31.76900        29.29229         0.00977
C         32.79155        31.47777         0.32347
C         31.39923        30.69822         0.40677
C         32.83833        32.83891         0.03098
C         31.73989        33.56272        -0.53649
C         33.04812        35.70299        -0.53746
C         31.72148        35.02948        -0.81199
C         33.14247        37.14495        -0.72139
C         31.07152        38.12293         1.46015
C         32.75716        40.16134         0.83285
C         31.05130        39.42259         0.74276
C         32.65035        41.65491         0.37835
C         31.81123        42.55408         1.52666
C         32.68263        44.38115         0.24327
C         31.74966        43.89288         0.87730
C         35.49419        27.13713         0.56385
C         35.28572        28.52183         1.11638
C         34.21929        29.30775         0.32733
C         35.33602        31.51881         0.65506
C         34.01985        30.77657         0.90730
C         35.32694        32.84927         0.38551
C         34.02812        33.61101         0.55597
C         35.28346        35.77036         0.39007
C         34.10158        35.05018         0.11334
C         35.20125        37.26274         0.67381
C         33.96687        37.92784         0.07178
C         35.22072        40.15980         0.49924
C         33.90158        39.45547         0.01990
C         35.16971        41.65037         0.18567
C         33.99477        42.33015         0.13315
C         35.15166        44.49030         0.64341
C         34.01388        43.89350        -0.21590
C         35.46031        45.94523         0.53342
C         37.78173        27.26500        -0.24198
C         36.53709        26.64004         0.13672
C         37.84102        28.57503         0.15504
C         36.68554        29.25959         0.85420
C         37.84934        31.48573         0.30408
C         36.62377        30.75767         0.71189
C         37.82278        32.95938         0.60258
C         36.57196        33.61231        -0.00886
C         37.74297        35.79878         0.22168
C         36.54922        35.10425         0.28155
C         37.77507        37.29981         0.48234
C         36.45275        37.96757         0.12754
C         37.78176        40.16811        -0.02647
C         36.46402        39.44639        -0.04893
C         37.70959        41.66327        -0.29337
C         36.51224        42.35101         0.40561
C         37.72510        44.61476        -0.19377
C         36.46059        43.84717         0.09262
C         37.87343        46.01731         0.48799
C         36.48532        46.60802         0.35952
C         40.05382        24.51127        -1.20835
C         39.05808        25.19514        -1.00406
C         40.17854        27.31427        -1.19920
C         38.74599        26.65186        -1.21827
C         40.27231        28.65023        -0.51174
C         38.95203        29.41690        -0.47161
C         40.29785        31.50202         0.07743
C         39.04197        30.82393         0.06281
C         40.29368        32.96002         0.09375
C         39.07175        33.65071         0.15226
C         40.28341        35.82491         0.08102
C         38.99594        35.09290        -0.25704
C         40.25186        37.30451         0.13948
C         38.94999        37.98060        -0.25132
C         40.29266        40.22968         0.06951
C         38.96049        39.49626        -0.07498
C         40.28190        41.68501        -0.34378
C         39.03322        42.43338         0.03997
C         40.31491        44.57539        -0.46606
C         39.00234        43.85705        -0.64213
C         40.37747        46.03328        -0.35017
C         39.06554        46.81821        -0.01046
C         40.15416        48.66425        -0.99638
C         39.04307        48.05917        -0.78316
C         42.50419        24.52254        -0.52601
C         41.46069        24.76363        -1.53352
C         42.87409        27.24555        -1.28564
C         41.46529        26.58377        -1.41737
C         42.85470        28.75372        -0.95579
C         41.58935        29.36767        -0.43892
C         42.73230        31.53999        -0.08767
C         41.54492        30.83479        -0.16196
C         42.73467        32.93620         0.47829
C         41.51816        33.67278         0.03513
C         42.79922        35.83856         0.26464
C         41.58565        35.13319        -0.32119
C         42.78145        37.35139         0.39042
C         41.53457        37.99004        -0.19349
C         42.83763        40.16944        -0.28918
C         41.53023        39.45979        -0.37789
C         42.75754        41.57077        -0.86347
C         41.59578        42.41621        -0.25013
C         42.83404        44.58800        -0.66333
C         41.53009        43.83661        -0.97721
C         42.82662        46.08335        -0.74458
C         41.48867        46.67498        -1.22454
C         42.74677        48.72137        -1.42222
C         41.43693        48.23727        -1.28857
C         43.32344        25.20552         0.08355
C         45.29112        26.21508        -0.89606
C         43.95118        26.52957        -0.22865
C         45.35567        28.95468        -1.26516
C         44.01998        29.50714        -0.95825
C         45.25074        31.74908        -0.39087
C         43.97911        30.96157        -0.60934
C         45.21956        33.06044         0.32071
C         44.02390        33.72491         0.40562
C         45.10817        35.97290         1.16899
C         43.93365        35.17065         0.61656
C         45.24059        37.36054         0.59167
C         44.08588        37.97723        -0.14330
C         45.27431        40.26799        -0.07922
C         44.02383        39.50816        -0.13657
C         45.31592        41.60318        -0.38264
C         44.09613        42.32728        -0.84135
C         45.44202        44.55884        -0.75263
C         44.12691        43.83671        -0.84897
C         45.43809        46.07374        -0.89234
C         44.15786        46.84756        -0.89200
C         43.88079        48.18102        -1.46669
C         47.27404        27.45226        -0.02772
C         46.49716        26.49841        -0.15958
C         47.59233        28.84126        -0.14993
C         46.56826        29.60088        -0.71027
C         47.84023        31.76560        -0.21519
C         46.57868        31.08395        -0.59125
C         47.82284        32.95596         0.72746
C         46.47082        33.70226         0.81339
C         47.73090        35.94360         1.02793
C         46.43261        35.17081         1.15999
C         47.73118        37.43897         0.92544
C         46.39534        38.20592         1.03800
C         47.70171        40.34341         0.69235
C         46.54770        39.46329         0.14770
C         47.83512        41.63036        -0.17281
C         46.52562        42.46535        -0.04046
C         47.97595        44.31906        -1.17598
C         46.58132        43.80961        -0.76249
C         47.80813        45.79889        -1.27407
C         46.77063        46.45808        -1.38870
C         50.13587        28.86018         0.55544
C         48.76128        29.49917         0.56585
C         50.32896        31.62834         0.36386
C         49.07962        30.85281        -0.13619
C         50.33446        33.12923         0.50897
C         49.02679        33.91929         0.41053
C         50.27370        35.97590         1.41181
C         48.98580        35.13241         1.37856
C         50.25501        37.49417         1.47031
C         48.99457        38.23315         1.12035
C         50.20138        40.41856         1.27107
C         48.99075        39.57129         0.87547
C         50.18544        41.86425         0.80246
C         49.06167        42.45247         0.17671
C         50.28920        44.37034         0.06636
C         49.06375        43.80379        -0.26768
C         51.24356        29.40084         0.65122
C         52.72366        31.65718         0.85243
C         51.48469        30.81478         1.09783
C         52.63540        32.89460         0.96467
C         51.57205        33.85929         0.98201
C         52.63672        36.15409         1.21548
C         51.55943        35.20534         1.20172
C         52.64713        37.37576         0.98781
C         51.63364        38.36344         1.50275
C         52.03625        39.97395        -0.39089
C         51.39767        39.63992         0.75894
C         52.65262        40.34632        -1.43315
C         51.35373        42.61945         1.09161
C         51.32423        43.98178         0.69099
O         40.18638        46.72474         0.91616
O         36.26912        38.54867        -1.21560
O         42.75374        45.40239         0.53295
O         50.23841        36.72353         2.70483
O         41.48959        38.55901        -1.52924
O         45.49138        27.87905        -1.92553
O         44.54440        31.81380        -1.68409
O         40.29100        36.50630         1.36610
O         47.36741        31.88647        -1.56998
O         36.74400        33.41015        -1.48642
O         36.71620        44.41733        -1.22728
O         40.78788        27.20412        -2.54152
O         44.97433        46.76957         0.28942
O         36.67523        42.26526         1.83376
O         50.72613        32.47083        -0.75474
O         44.22021        43.06634        -2.10972
O         46.35441        34.18462         2.22189
O         36.96011        30.07002         2.02892
O         41.02967        28.58283         0.72363
O         37.69959        33.15741         2.04373
H         38.27550        32.50043         2.48970
O         47.97877        41.23028        -1.55340
H         48.05646        42.05105        -2.11165
O         44.26636        37.57355        -1.52617
H         45.14339        37.92362        -1.81386
O         49.38857        30.42335        -1.46611
H         49.75024        31.18984        -1.96292
O         35.59048        34.01339        -2.13519
H         35.14244        33.23791        -2.55352
O         46.87096        38.91463        -1.14726
H         47.21263        39.65084        -1.71506
O         31.23235        35.23903        -2.12270
H         31.23527        36.20773        -2.29570
O         38.81246        37.74224        -1.66627
H         37.92220        38.06971        -1.94047
O         51.21465        30.86946         2.47619
H         51.85740        30.31130         2.95902
O         47.37304        40.71660         2.05179
H         48.19962        40.76067         2.58698
O         38.95641        35.03646        -1.72575
H         38.12119        34.56737        -1.97931
O         48.90490        34.41362        -0.91706
O         41.70944        35.23391        -1.76503
H         40.80225        35.19521        -2.15309
O         33.00066        40.05533         2.21184
H         33.02004        40.95957         2.63089
O         48.22489        43.77352        -2.49642
H         49.08475        44.11833        -2.81834
O         38.08296        45.71074         1.85681
H         38.72799        46.34192         2.24272
O         52.37616        42.04552         1.76191
H         53.15591        42.63519         1.76841
O         42.75044        37.68780         1.79860
H         41.89748        37.35349         2.16378
O         33.73158        39.84324        -1.37488
H         34.53406        39.50950        -1.84511
O         46.15654        38.55613         2.41573
H         45.52696        37.89351         2.79597
O         37.94610        37.53844         1.89599
H         37.10360        37.27348         2.34296
O         38.90109        43.66604        -2.08167
H         37.92748        43.70247        -2.29059
O         42.41866        41.27786        -2.23345
H         42.79471        42.00434        -2.78755
O         37.42002        41.70552        -1.71124
H         38.17803        41.31152        -2.19419
O         44.83590        36.17918         2.60033
H         45.07813        35.33408         3.04982
O         34.23394        44.07609        -1.59062
H         33.41097        43.86302        -2.07405
O         31.87012        41.71617        -0.82853
H         32.44863        41.38823        -1.55456
O         33.78390        30.71357         2.33089
H         33.76607        31.64971         2.64568
O         33.80767        33.66004         2.01252
H         34.38307        34.36800         2.37839
O         44.17531        27.34859         0.88309
H         43.33384        27.48838         1.36743
O         46.33557        42.91855         1.32077
H         46.39598        42.13890         1.92789
O         42.58328        32.75898         1.95782
H         42.42845        33.64728         2.34680
O         43.39922        26.99503        -2.59608
H         42.73756        27.32487        -3.24446
O         38.60831        29.56648        -1.88152
H         37.77792        30.08409        -1.94653
O         41.29915        46.23652        -2.57574
H         40.44728        46.58406        -2.91319
O         48.05424        32.31310         1.98667
H         47.86924        32.96786         2.70155
O         32.26288        37.68293        -1.60230
H         32.45753        38.65087        -1.69158
O         38.19761        26.83120        -2.50827
H         38.93670        26.81974        -3.15710
O         41.85618        24.37215        -2.79430
H         41.07947        24.30597        -3.38490
O         32.59073        42.64279         2.69044
H         33.35586        43.26883         2.52241
O         30.58823        39.33763        -0.55939
H         30.53915        40.25756        -0.91251
O         41.50270        43.63770        -2.39501
H         40.56093        43.52188        -2.67155
O         30.96692        30.72544         1.73736
H         31.71079        30.41502         2.30456
O         51.92403        38.64922         2.84781
H         51.73147        37.83740         3.37157
O         35.01356        28.47168         2.48780
H         35.65042        29.06300         2.95207
O         31.30543        38.14675         2.76567
H         31.64463        39.04120         3.02307
O         48.39218        29.68883         1.91950
H         48.21462        28.81946         2.33317
O         45.32199        25.31730        -1.85353
H         44.47001        25.31048        -2.34971
O         40.50057        40.34248         1.52885
H         39.83395        41.00901         1.85841
O         50.15792        40.44539         2.71959
H         50.99403        40.85509         3.03648
O         48.86186        34.62249         2.71512
H         49.09615        35.35267         3.33366
O         39.15432        42.63921         1.46523
H         38.22059        42.63551         1.87167
O         34.71155        29.47911        -1.01158
H         34.63069        28.61989        -1.47823
O         41.93071        42.70928         1.11828
H         41.58956        41.97414         1.67891
O         34.88417        44.11867         1.99516
H         35.62610        43.49066         2.27558
O         35.37914        40.03894         1.92965
H         35.96045        40.82768         2.19885
O         35.22298        37.38143         2.12581
H         35.15307        38.35310         2.33852
O         47.80336        36.59793        -0.26825
H         49.24150        33.72856        -1.53669
