         314
 CSIRO Nanostructure Databank - Neutral Graphene Oxide Data Set
C         30.35619        57.24625         0.72797
C         30.35988        58.65648         0.87467
C         29.20087        59.45549         0.66810
C         30.48338        61.47845         1.10574
C         29.27241        60.83740         0.82773
C         32.69402        52.91424         0.77800
C         32.74605        54.31511         0.75368
C         31.54526        55.06550         0.74900
C         32.76029        57.13219         1.23695
C         31.54122        56.48099         0.84198
C         32.64167        58.45891         1.65404
C         31.56613        59.30430         1.29675
C         32.92358        61.45715         1.21916
C         31.68909        60.74601         1.28967
C         35.24611        48.58841         0.49938
C         35.16394        50.01856         0.37027
C         33.97157        50.69415         0.58837
C         35.12517        52.91558         0.02022
C         33.83425        52.12572         0.33836
C         35.20261        54.34552         0.40157
C         34.03688        55.01132         0.74954
C         35.41534        57.21679         1.00154
C         34.05949        56.42196         1.20504
C         35.42930        58.70709         0.82519
C         34.44747        59.52692         1.40336
C         35.30682        61.54093         0.39947
C         34.21480        60.87852         1.01526
C         37.73596        44.32481         0.36555
C         37.68692        45.71663         0.38920
C         36.49089        46.47365         0.48549
C         37.72628        48.72045         0.55772
C         36.45405        47.88557         0.47434
C         37.60104        49.98822        -0.26968
C         36.36054        50.76519        -0.01159
C         37.54328        52.89761        -0.55951
C         36.37097        52.13141        -0.08716
C         37.60970        54.35048        -0.30793
C         36.46728        55.04183         0.20728
C         37.54738        57.16181        -0.28859
C         36.50387        56.46076         0.34680
C         37.71704        58.63053        -0.06700
C         36.48372        59.39785         0.19229
C         37.70933        61.52978        -0.23484
C         36.49547        60.83079         0.10616
C         40.25509        40.07949         0.57690
C         40.25191        41.48219         0.46705
C         39.02189        42.19698         0.45585
C         40.19008        44.27015        -0.04485
C         38.97983        43.59234         0.26782
C         40.11374        45.71055        -0.34794
C         38.97528        46.45053         0.27872
C         40.18144        48.64073        -0.31292
C         39.00062        47.93983         0.26078
C         40.15711        50.03368        -0.52940
C         38.84744        50.69727        -0.71499
C         40.09025        52.94783        -0.92622
C         38.83504        52.18323        -0.93284
C         40.03718        54.40472        -1.38213
C         38.72346        55.04435        -0.83672
C         40.37923        57.52975        -1.16689
C         38.49792        56.41453        -1.00054
C         40.27056        58.76560        -0.60817
C         38.98566        59.41158        -0.25140
C         40.18583        61.60285        -0.42636
C         38.94907        60.89763        -0.34317
C         42.84955        35.80103         0.92754
C         42.79119        37.21487         0.69847
C         41.56087        37.88355         0.72067
C         42.82318        40.13101         0.73263
C         41.47191        39.32992         0.83145
C         42.74126        41.53549         0.28012
C         41.48947        42.20726         0.27291
C         42.65654        44.30536        -0.33624
C         41.45088        43.60526        -0.04738
C         42.64129        45.68776        -0.96489
C         41.34295        46.45991        -0.73668
C         42.58919        48.63632        -0.68149
C         41.37582        47.93313        -0.54360
C         42.58037        50.05259        -0.68297
C         41.35321        50.74281        -0.73646
C         42.65052        52.96741        -1.01633
C         41.33599        52.19659        -1.03937
C         42.58972        54.44783        -0.93096
C         41.41096        55.16723        -1.08405
C         42.69728        57.29341        -0.72857
C         41.51711        56.63699        -1.03157
C         42.74469        58.73523        -0.37610
C         41.47684        59.49183        -0.19603
C         42.68588        61.64142        -0.32245
C         41.45149        60.97153        -0.33615
C         45.39514        33.17832         1.70957
C         44.15493        33.78990         1.54558
C         45.28705        35.71573         0.48700
C         44.05090        35.09418         0.99340
C         45.26096        37.23167         0.20661
C         44.01649        37.95733         0.48965
C         45.26949        40.05712         0.21613
C         44.04911        39.35106         0.45732
C         45.22092        41.52459         0.12515
C         43.92351        42.21044        -0.04511
C         45.10905        44.31316        -0.64211
C         43.90838        43.61886        -0.34660
C         45.17418        45.79180        -0.39930
C         43.87100        46.51385        -0.66676
C         45.09325        48.64233        -0.89053
C         43.83618        47.87385        -0.70049
C         45.14364        50.05374        -0.43533
C         43.82690        50.81697        -0.44349
C         45.10674        52.92343        -0.35326
C         43.88740        52.26886        -0.59451
C         45.15785        54.37184        -0.39467
C         43.93297        55.08691        -0.85784
C         45.17325        57.26577        -0.21228
C         43.97251        56.59023        -0.77113
C         45.18903        58.76008        -0.25935
C         43.97701        59.49564        -0.80377
C         45.16113        61.61110        -0.21835
C         43.95358        60.96311        -0.38678
C         46.59589        33.83024         1.38052
C         47.76471        35.86015         0.56941
C         46.58742        35.11180         0.80097
C         47.74889        37.23567         0.29644
C         46.53765        37.95827         0.22395
C         47.72871        40.09298        -0.23273
C         46.50629        39.38188         0.12506
C         47.67894        41.43337        -0.58215
C         46.47519        42.23797        -0.30846
C         47.64448        44.32902        -0.96527
C         46.34344        43.55404        -1.05704
C         47.63012        45.76062        -0.97843
C         46.40758        46.46525        -0.95265
C         47.64319        48.70746        -0.92287
C         46.39407        47.93181        -1.07453
C         47.65381        50.08044        -0.69621
C         46.40131        50.80516        -0.52471
C         47.60105        52.86320         0.08803
C         46.34810        52.16952        -0.27676
C         47.58110        54.37068         0.23170
C         46.34248        55.08441        -0.14624
C         47.64683        57.21769         0.05015
C         46.43966        56.51562        -0.16162
C         47.70582        58.65095        -0.06209
C         46.50271        59.40767        -0.43303
C         47.73872        61.55994        -0.07918
C         46.46848        60.94463        -0.40461
C         49.06850        37.97712         0.31783
C         50.16541        40.03019        -0.53715
C         49.00025        39.38611        -0.23352
C         50.19254        41.40426        -1.05382
C         48.84609        42.14709        -1.11457
C         50.09874        44.32577        -1.00754
C         48.85567        43.63065        -1.04369
C         50.08527        45.74393        -0.95167
C         48.88116        46.45975        -1.01047
C         50.16760        48.70340        -0.97680
C         48.88298        47.94219        -1.12544
C         50.12146        50.14308        -0.66443
C         48.91628        50.81840        -0.56222
C         50.06912        52.93969         0.07637
C         48.90471        52.21863        -0.16175
C         50.06743        54.35891         0.40971
C         48.86782        55.09290         0.26679
C         50.11766        57.19593         0.50886
C         48.89325        56.50424         0.27127
C         50.13407        58.64404         0.38876
C         48.91387        59.34693         0.05565
C         50.17405        61.45840        -0.05793
C         48.91378        60.80130        -0.02904
C         51.40198        42.21949        -0.92019
C         52.60070        44.34258        -0.84659
C         51.37125        43.60951        -0.94407
C         52.64056        45.73496        -0.69266
C         51.34632        46.44896        -0.60598
C         52.66466        48.64856        -0.51438
C         51.37509        47.94056        -0.55353
C         52.65873        50.04586        -0.37752
C         51.41480        50.83594        -0.57547
C         52.56942        52.90454         0.43461
C         51.38556        52.32281        -0.18590
C         52.38985        54.15139         1.29071
C         51.26997        55.04188         0.76796
C         52.51837        57.19623         1.31454
C         51.29939        56.45190         0.83979
C         52.53175        58.73388         1.11315
C         51.32606        59.36610         0.52106
C         52.61104        61.38717        -0.18900
C         51.36168        60.75810         0.12771
C         53.83504        46.46622        -0.54795
C         55.07392        48.59479        -0.16620
C         53.86792        47.89069        -0.39965
C         55.06878        49.97636         0.10665
C         53.83816        50.69992         0.02372
C         55.03071        52.66491         1.11371
C         53.73810        52.04768         0.60662
C         55.01291        54.13855         1.39154
C         53.71701        54.88934         1.48673
C         54.96798        56.88285         1.93056
C         53.78244        56.38647         1.47019
C         55.04678        59.06773         1.43656
C         53.73043        59.74125         1.25040
C         55.06363        61.25778        -0.27810
C         53.80504        60.78790         0.16569
C         56.29603        50.67413         0.40679
C         57.52441        52.75792         0.94314
C         56.31588        52.00391         0.78986
C         57.53400        54.13572         1.12068
C         56.25190        54.92890         1.05870
C         57.34813        57.00493         0.97494
C         56.32862        56.23229         1.86847
C         57.42947        58.52483         0.89761
C         56.22160        59.33340         0.77050
C         57.52285        61.13781        -0.29401
C         56.26485        60.58788         0.01830
C         58.71874        54.90690         1.21023
C         59.88707        57.03742         1.08807
C         58.69072        56.30795         1.13921
C         59.90480        58.40836         0.76260
C         58.65024        59.12145         0.59002
C         59.96911        61.09836        -0.12747
C         58.70928        60.48312         0.07996
C         61.12721        59.08953         0.57546
C         61.15335        60.41959         0.14824
O         49.45120        41.59058        -2.31605
O         44.44455        50.31328         0.81299
O         44.23407        55.92131        -2.04376
O         38.61161        58.91210         1.10226
O         45.16414        36.23969        -0.87135
O         40.33632        46.07824        -1.76146
O         45.59636        48.45652        -2.25357
O         47.45709        53.49272         1.40912
O         46.57132        60.15289        -1.68295
O         54.45105        54.43025         2.70354
O         42.23769        59.01237         0.96868
O         49.67132        48.38423        -2.31482
O         42.22595        39.87024         2.00113
O         33.66846        59.01754         2.43463
O         39.39339        47.17998         1.48243
O         34.20732        52.57502        -1.03988
O         51.57042        51.88773        -1.59012
O         46.09225        42.25867         1.09236
O         56.08117        55.41744        -0.31759
O         54.19550        51.95588         2.05319
O         37.88331        52.60353        -1.96213
O         38.00965        49.92278        -1.65830
O         39.29201        57.08671        -1.91627
O         56.86369        56.67482        -0.40109
O         51.16308        47.16698         0.68730
O         55.03060        58.16068         2.48870
O         44.95618        58.08304         0.99987
O         52.22948        58.11680         2.41440
O         34.99476        56.70661         2.28750
O         42.09793        52.48862        -2.30682
O         56.85976        56.04294         3.17497
H         56.18714        55.55871         3.70203
O         51.94279        53.69123         2.59332
H         52.73329        53.29270         3.03004
O         44.00851        59.44163        -2.24661
H         44.88003        59.81225        -2.52922
O         46.15811        43.16835        -2.45619
H         46.03094        43.98551        -2.98353
O         42.74410        45.42291        -2.40084
H         41.81948        45.42120        -2.74805
O         45.33851        45.91943         1.08184
H         45.95520        45.21448         1.37838
O         50.08843        37.22187        -0.34202
H         49.85142        37.15023        -1.28934
O         37.82652        49.19745         1.92566
H         38.22404        48.46205         2.44784
O         39.93751        54.39736        -2.82259
H         40.64212        53.79595        -3.15733
O         53.44254        60.46932         2.47525
H         53.21446        59.79351         3.15350
H         29.41604        56.73638         0.47278
H         28.25267        58.97522         0.38917
H         30.52017        62.57731         1.12773
H         28.36809        61.44503         0.68149
H         31.74193        52.41091         1.00144
H         30.58878        54.53436         0.63960
H         32.83843        62.54087         1.03568
H         34.30385        48.02567         0.58799
H         33.10788        50.15377         1.00409
H         35.25009        62.61960         0.19593
H         36.80428        43.75068         0.47925
H         35.53325        45.93050         0.51586
H         37.66718        62.62927        -0.27039
H         39.30869        39.52910         0.46930
H         38.08708        41.64805         0.64220
H         40.15001        62.70148        -0.49812
H         41.91833        35.29042         1.21669
H         40.62877        37.30286         0.65773
H         42.69415        62.74254        -0.28897
H         45.44163        32.17466         2.15494
H         43.24188        33.27550         1.87845
H         45.17353        62.66980         0.08401
H         47.55701        33.34185         1.59622
H         48.74063        35.37372         0.71787
H         47.78890        62.64463         0.09624
H         49.38803        38.05247         1.39742
H         51.12290        39.51229        -0.37238
H         50.21149        62.53447        -0.27939
H         52.35910        41.70629        -0.74076
H         53.54439        43.77676        -0.86391
H         52.60296        62.29659        -0.80775
H         54.79047        45.91996        -0.54244
H         56.02193        48.03956        -0.10924
H         55.10093        62.17677        -0.88152
H         57.24671        50.14013         0.26188
H         58.48271        52.22214         0.86884
H         57.57625        62.11275        -0.80047
H         59.69077        54.39379         1.26143
H         60.84170        56.50325         1.20795
H         60.00065        62.12826        -0.51077
H         62.06920        58.54830         0.74398
H         62.11842        60.92283        -0.00353
