         276
 CSIRO Nanostructure Databank - Neutral Graphene Oxide Data Set
C        -11.09091         0.80493         0.64532
C         -9.89235         1.49479         0.17902
C         -8.66282         0.71315         0.05702
C         -7.48717         1.33756        -0.34177
C         -6.16210         0.65474        -0.32064
C         -4.87280         1.40622        -0.21961
C         -3.61185         0.72204        -0.66988
C         -2.37105         1.56391        -0.93805
C         -1.06235         0.78919        -0.86358
C          0.06015         1.46317        -1.24304
C          1.35974         0.75774        -1.45085
C          2.67738         1.51260        -1.21399
C          3.90047         0.63547        -1.75832
C          5.20628         1.40521        -1.55395
C          6.53969         0.67252        -1.18537
C          7.38773         1.32165        -0.08161
C          8.56118         0.59952         0.47176
C          9.87661         1.36675         0.35580
C         11.03821         0.54983         0.87916
C         -9.88534         2.85520        -0.04292
C         -8.68443         3.57866        -0.37701
C         -7.46906         2.78889        -0.84035
C         -6.19210         3.58676        -0.40934
C         -4.89780         2.89710        -0.12807
C         -3.57270         3.61785         0.00028
C         -2.22705         2.88269        -0.15070
C         -1.20209         3.68914        -0.99646
C          0.03981         2.94445        -1.47212
C          1.33146         3.70748        -1.69041
C          2.69490         2.98657        -1.84385
C          3.90643         3.72131        -1.23197
C          5.15525         2.90248        -1.43940
C          6.37720         3.49433        -0.85822
C          7.47215         2.81681        -0.13574
C          8.65400         3.55740         0.40624
C          9.74644         2.82064         0.77902
C         -8.63271         4.94739        -0.23587
C         -7.42662         5.75229        -0.32115
C         -6.18448         5.07997        -0.90330
C         -4.80978         5.87650        -0.61352
C         -3.60473         5.09975        -0.05508
C         -2.29544         5.84146        -0.20000
C         -1.21329         5.18469        -1.00693
C          0.02236         5.98330        -1.47829
C          1.36206         5.18851        -1.36575
C          2.56415         5.73982        -0.65891
C          3.85528         4.95067        -0.59155
C          4.96994         5.71188         0.04753
C          6.30683         5.56751        -0.25241
C          7.44407         5.84113         0.62220
C          8.48839         4.96469         0.81992
C         -7.46014         7.07540         0.00006
C         -6.25751         7.94895         0.26473
C         -4.94196         7.16303         0.22252
C         -3.67333         7.96032         0.33954
C         -2.36237         7.31441        -0.06449
C         -1.19617         8.13545        -0.50692
C          0.07546         7.45103        -0.91518
C          1.40290         8.02581        -0.34543
C          2.17652         6.82957         0.35857
C          3.32859         7.28984         1.27752
C          4.69361         6.65498         1.17620
C          5.87198         7.38788         1.79984
C          7.32641         7.13581         1.38542
C         -6.10216         9.18186        -0.60654
C         -4.96799         9.89451        -0.55215
C         -3.79650         9.50141         0.34791
C         -2.49523        10.24716        -0.09275
C         -1.21108         9.48320         0.12448
C         -0.05601         9.99065         0.59659
C          1.15100         9.16522         0.65688
C          2.05373         9.47970         1.61330
C          3.23396         8.64734         1.91280
C          4.45179         9.33351         2.38752
C          5.65795         8.74419         2.35791
C        -11.07978        -0.41194         1.23346
C         -9.80260        -1.16734         1.52729
C         -8.72460        -0.66630         0.57100
C         -7.81863        -1.61005         0.18465
C         -5.99684        -0.77076        -0.68176
C         -4.88041        -1.46219        -0.31116
C         -3.57749        -0.75947        -0.49351
C         -2.32247        -1.45855        -0.01781
C         -0.95599        -0.64420        -0.28598
C         -0.01509        -1.47520        -1.24293
C          1.35509        -0.73959        -1.36732
C          2.62162        -1.34919        -0.76546
C          3.93986        -0.77032        -1.18239
C          5.07634        -1.49381        -0.98530
C          6.42291        -0.85632        -0.98882
C          7.51409        -1.60612        -0.26178
C          8.59173        -0.92169         0.57479
C          9.92312        -1.61235         0.40004
C         11.08511        -0.80187         0.73763
C        -10.02060        -2.72207         1.44263
C         -9.22210        -3.70066         1.02216
C         -7.18846        -2.58436         1.10521
C         -6.16697        -3.53234         0.54756
C         -4.93907        -2.92545        -0.08883
C         -3.63042        -3.59385         0.16411
C         -2.44297        -2.97573        -0.57200
C         -1.12574        -3.74341        -0.33981
C          0.08116        -2.89077        -0.64680
C          1.39722        -3.26557        -0.11642
C          2.57514        -2.85536        -0.64283
C          3.81086        -3.68208        -0.33341
C          5.04547        -2.99789        -0.90323
C          6.31360        -3.79612        -0.68418
C          7.35040        -3.06309         0.14293
C          8.69144        -3.77388         0.18328
C          9.91380        -2.98433         0.28809
C         -8.71080        -4.85711         0.56309
C         -7.51823        -5.62789         1.09210
C         -6.17141        -4.90889         1.14470
C         -4.89351        -5.69959         1.07900
C         -3.63046        -4.99961         0.65410
C         -2.45465        -5.82338         0.16523
C         -1.13576        -5.09670         0.51025
C          0.02735        -5.98106         0.08312
C          1.26730        -5.46117         0.14477
C          2.45826        -6.00345        -0.53301
C          3.71120        -5.18093        -0.77336
C          5.03004        -5.97441        -0.87604
C          6.24730        -5.24686        -0.46928
C          7.40637        -5.91594         0.02927
C          8.64119        -5.14399         0.24547
C         -7.45070        -7.11520         0.94477
C         -6.28798        -7.83991         0.90230
C         -4.95589        -7.18880         0.95814
C         -3.72236        -7.93736         0.58107
C         -2.52595        -7.30345         0.50265
C         -1.22784        -8.04584         0.71105
C         -0.08395        -7.47096        -0.14536
C          1.27777        -8.09414         0.30640
C          2.45122        -7.50725        -0.48683
C          3.75254        -8.24226        -0.50483
C          5.02845        -7.48709        -0.76533
C          6.38170        -8.16970        -0.54391
C          7.39832        -7.30554         0.16570
C         -6.23822        -9.30329         0.93250
C         -5.09954       -10.02080         0.78609
C         -3.81393        -9.41342         0.27569
C         -2.52044       -10.17290         0.50217
C         -1.28307        -9.54806         0.51041
C         -0.03962       -10.24657         0.37954
C          1.24077        -9.61098         0.28999
C          2.46445       -10.26716         0.25897
C          3.77238        -9.49289         0.37770
C          5.07092       -10.23997         0.18121
C          6.22867        -9.60125        -0.05460
O         -5.82586         3.35869         0.93599
O         -3.66907        -0.17601        -1.84589
O          7.53160        -1.50196        -1.70297
O          5.39687         2.27440        -2.72343
O         -1.84633         6.44566         1.03456
O          2.34867         6.00793        -2.08693
O         -6.36179         5.02128        -2.28081
O          1.42738        -4.27017         0.85180
O         -0.69472         8.26551        -1.87205
O         -6.95550        -5.10660         2.33283
O          5.82027        -3.48091        -2.02756
O          4.34507        -8.24126        -1.82815
O         -1.83089         4.42061        -2.08527
O          4.31368        -5.45463        -2.04201
O          2.07595        -6.82296        -1.69966
O          5.24165         6.26309         2.47887
O         -4.69831        -6.52064         2.26288
O         -7.16619        -1.43100        -1.04559
O          2.88350         7.41214         2.66135
O          6.65438         4.78937        -1.35410
O         -0.39158        -3.92548        -1.58259
O         -3.34241        -3.89398         1.55463
O         -5.94030        -3.62661        -0.89384
O         -0.26262        -0.54974         0.89944
O          0.45193         3.37566        -2.81381
O         -3.64453         4.42633         1.22535
O          6.28356         3.35923         0.58263
O         -4.24285         7.23594         1.48490
O          7.44310         1.00225         1.34536
O         -5.44540         0.82062         0.98856
O         -7.24123        -2.42394         2.33159
O          1.43171        -0.09036        -2.65743
O          1.55672        -7.66352         1.66877
H          0.74172        -7.86272         2.21104
O         -2.55787        10.53782        -1.50005
H         -1.96593         9.92232        -1.98580
O         -4.08198         9.94178         1.68376
H         -4.93851         9.51800         1.94374
O         -0.59158        -1.54686        -2.53165
H         -0.09703        -0.90973        -3.10916
O         -7.46190         2.70364        -2.27350
H         -7.19880         3.60979        -2.61579
O         -2.52411         1.98798        -2.31118
H         -2.80420         1.20080        -2.83238
O          7.41362         0.88823        -2.30948
H          6.99120         0.51417        -3.11121
O         -1.06598        -4.89757         1.92296
H         -0.27376        -4.35507         2.12663
O          2.21126         8.58158        -1.38513
H          2.17026         7.96606        -2.15464
O          2.92955         2.90031        -3.25584
H          2.05256         2.94751        -3.70447
O          4.03476        -3.65805         1.09954
H          3.19364        -3.91763         1.54274
O          7.77898         8.23029         0.56724
H          7.37512         8.15153        -0.32150
O         -3.94099        -9.48042        -1.19602
H         -3.20422        -8.96146        -1.58644
O         -0.95667        -7.81840         2.13264
H         -1.22121        -6.88932         2.34945
O         10.08847         1.39656        -1.09713
H         10.94405         1.84075        -1.27383
O         -0.39670        -7.80223        -1.50813
H          0.34404        -7.46315        -2.06945
O         -6.44515         8.43620         1.62722
H         -6.12095         7.73280         2.23343
O          6.76724        -3.17717         1.46470
H          7.35782        -2.67298         2.08167
O          2.84656         1.73075         0.18938
H          2.61647         0.89691         0.67390
O          8.31499        -1.20382         1.98775
H          7.74616        -0.46894         2.32395
O         -2.44822        -1.53092         1.39635
H         -1.61998        -1.11179         1.76772
O         -4.33949         6.33341        -1.89408
H         -4.97397         5.96125        -2.57025
O          6.97535        -8.30523        -1.87513
H          6.23585        -8.51599        -2.49085
O          3.86398        -9.02006         1.75498
H          3.00733        -8.57857         1.99627
O         -2.79096        -2.97161        -1.94215
H         -1.97625        -2.83049        -2.47971
O          2.55674        -0.92098         0.65648
H          3.23107        -1.43071         1.15990
O          1.20017         6.17322         1.19626
H          1.34805         6.49519         2.12058
O         -0.13373         6.14751        -2.89528
H         -0.48631         5.29763        -3.25067
O         -9.44632        -0.90700         2.89254
H         -8.58678        -1.37546         3.05413
O          3.78336         0.39975        -3.16640
H          3.77252         1.29125        -3.60004
O         -1.69973         2.62318         1.14461
H         -2.08326         3.28795         1.76387
O         -2.56092        -5.82609        -1.28530
H         -1.82838        -6.37931        -1.64874
H         12.02168        -1.33258         0.97245
H         11.94561         1.08565         1.20045
H         10.60087         3.30906         1.27424
H          9.27934         5.31433         1.50720
H          7.97344         7.12539         2.29720
H          6.55230         9.29856         2.67868
H          4.34514        10.36661         2.75041
H          1.86738        10.34532         2.26893
H         -0.02064        10.98962         1.05825
H         -2.46384        11.22022         0.46122
H         -4.86514        10.81169        -1.15103
H         -6.94257         9.50293        -1.24008
H         -8.42827         7.51260         0.29735
H         -9.54886         5.46902         0.08903
H        -10.80156         3.43610         0.14916
H        -12.04675         1.34251         0.54073
H        -12.02441        -0.84631         1.59581
H        -10.90110        -3.04081         2.03592
H         -9.08506        -5.21448        -0.41690
H         -8.40748        -7.65957         0.88894
H         -7.17433        -9.83133         1.17349
H         -5.13930       -11.11712         0.87659
H         -2.56067       -11.26741         0.37072
H         -0.07077       -11.34686         0.32516
H          2.49352       -11.36779         0.30148
H          5.08488       -11.31400         0.42378
H          7.15902       -10.19063        -0.08453
H          8.30970        -7.80424         0.53144
H          9.56804        -5.72349         0.37684
H         10.86961        -3.53285         0.29597
