         661
 CSIRO Nanostructure Databank - Neutral Graphene Oxide Data Set
C          5.98626        31.74497         0.69256
C          6.00050        33.10336         0.85641
C          8.33133        27.44626        -0.06445
C          8.32568        28.84496         0.00829
C          7.16021        29.60391         0.28989
C          8.42107        31.73585         0.27980
C          7.18494        31.00293         0.40015
C          8.44435        33.16030         0.46283
C          7.21601        33.86793         0.75116
C          8.41874        36.01841         0.79379
C          7.22212        35.25389         0.90699
C          8.40102        37.41991         0.76754
C         10.78529        23.12267        -0.39066
C         10.79283        24.52729        -0.28441
C          9.56940        25.28705        -0.19600
C         10.81543        27.41582        -0.02961
C          9.53423        26.67866        -0.15614
C         10.87377        28.86092        -0.37504
C          9.56417        29.60643        -0.28507
C         10.87447        31.70570         0.03823
C          9.61805        31.04687        -0.00093
C         10.89248        33.15325         0.14855
C          9.65315        33.86589         0.34256
C         10.84902        36.00971         0.41676
C          9.67120        35.30981         0.53288
C         10.91479        37.47889         0.76074
C          9.58799        38.18546         0.58696
C         10.78633        40.28725         0.06752
C          9.58723        39.55894         0.38770
C         10.82120        41.67249         0.02601
C         13.25659        18.72318        -0.73111
C         13.14171        20.16860        -1.22510
C         11.97840        20.96900        -0.67249
C         13.23584        23.09621        -0.73748
C         11.97982        22.36203        -0.61645
C         13.25180        24.52462        -0.57802
C         12.05376        25.21360        -0.32865
C         13.35421        27.41490        -0.38389
C         12.11297        26.66096        -0.09990
C         13.36973        28.83887        -0.41515
C         12.16426        29.58639        -0.22243
C         13.32020        31.76637         0.35667
C         12.10415        30.98229        -0.00239
C         13.35680        33.18901        -0.09879
C         12.08539        33.86596        -0.03464
C         13.37472        35.95520         0.13648
C         12.02515        35.35402        -0.25675
C         13.36310        37.47395         0.06497
C         12.06397        38.19948         0.08592
C         13.15118        40.25990        -0.88571
C         12.01457        39.53282        -0.18576
C         13.23100        41.73331        -0.57586
C         12.03773        42.41432        -0.20897
C         13.26078        44.55714        -0.18969
C         12.07007        43.80965        -0.02527
C         13.29610        45.91636         0.14546
C         15.69444        14.32568        -0.40266
C         15.28089        15.67272        -0.74211
C         14.38545        16.56172        -0.21018
C         15.75213        18.70361        -0.51056
C         14.40101        17.99228        -0.63106
C         15.72411        20.16923        -0.89111
C         14.46151        20.93233        -1.11702
C         15.66648        23.11533        -0.76164
C         14.44309        22.40108        -0.86266
C         15.70302        24.51379        -0.71886
C         14.49780        25.25485        -0.61682
C         15.84908        27.38179        -0.21193
C         14.54141        26.67554        -0.49939
C         15.85087        28.84750        -0.54610
C         14.65499        29.49695        -0.69842
C         15.90146        31.69520        -1.18680
C         14.67077        30.83144        -1.36659
C         15.81313        33.15726        -0.83339
C         14.52696        33.83005        -0.47259
C         15.82773        36.01714        -0.52018
C         14.49480        35.32007        -0.72508
C         15.82132        37.42409        -0.66616
C         14.57750        38.17931        -0.40651
C         15.65562        40.29878        -1.04017
C         14.49968        39.60003        -0.77238
C         15.62823        41.72824        -1.15337
C         14.44313        42.43631        -0.81530
C         15.64914        44.59961        -0.81883
C         14.48059        43.88188        -0.63698
C         15.64782        46.09229        -0.69653
C         14.51304        46.66274         0.10576
C         15.98196        48.47163         1.02926
C         14.62861        47.88108         0.73099
C         15.96403        49.90691         1.52067
C         18.26626        10.23367        -0.06182
C         18.24085        11.66789        -0.30776
C         17.05611        12.34056        -0.50941
C         18.19632        14.49674        -1.10091
C         16.93336        13.76922        -0.71273
C         18.28693        15.96652        -1.18796
C         17.14797        16.74438        -1.39098
C         18.28099        18.80804        -0.82259
C         17.05050        18.10091        -1.04752
C         18.25856        20.19531        -0.52431
C         16.94740        20.89470        -0.41370
C         18.18189        23.10869        -0.48952
C         16.91074        22.38444        -0.46267
C         18.23311        24.45405        -0.73070
C         16.99024        25.22295        -0.94647
C         18.36317        27.43221        -0.77098
C         17.04642        26.72499        -0.85718
C         18.47719        28.80535        -0.54162
C         17.17287        29.58784        -0.33492
C         18.46162        31.76393        -0.69642
C         17.21556        30.97010        -0.98047
C         18.29056        33.20983        -0.40529
C         17.08625        33.86438        -0.49321
C         18.26021        36.07101        -0.61218
C         17.04852        35.32806        -0.49156
C         18.23456        37.46302        -0.88011
C         16.99440        38.13761        -0.92308
C         18.18805        40.33221        -1.32355
C         16.90595        39.54682        -1.45512
C         18.15440        41.70045        -1.51348
C         16.85833        42.43752        -1.54714
C         18.14009        44.70601        -1.27918
C         16.85641        43.97711        -1.39263
C         18.18836        46.04477        -0.89979
C         16.98790        46.73451        -0.45243
C         18.26256        48.79991        -0.20380
C         17.04249        48.03347         0.01583
C         18.23469        50.17003        -0.32917
C         16.59217        50.95649         0.92666
C         18.20295        52.88834         1.16531
C         17.03283        52.19820         1.50815
C         18.36263        54.16323         1.78289
C         20.76258         6.09577         0.94004
C         20.71581         7.47094         0.73688
C         19.35181         8.14134         0.79617
C         20.61614        10.35176         0.77475
C         19.36175         9.60152         0.42576
C         20.59935        11.78691         0.32355
C         19.49156        12.40178        -0.18920
C         20.71501        14.62116        -0.37424
C         19.53174        13.79765        -0.69951
C         20.78535        15.98118        -0.65582
C         19.61829        16.67722        -1.32402
C         20.72224        18.85884        -0.72146
C         19.53384        18.13940        -0.92701
C         20.70104        20.24926        -0.48912
C         19.45634        20.91337        -0.40283
C         20.64877        23.11977        -0.16168
C         19.37475        22.36179         0.01694
C         20.68549        24.48858        -0.24262
C         19.47637        25.18476        -0.68032
C         21.10887        27.54253         0.01081
C         19.47748        26.54346        -0.96862
C         20.88536        28.95767         0.25181
C         19.71668        29.55049        -0.20490
C         20.64792        31.77061         0.73006
C         19.80528        31.07727        -0.38828
C         20.68787        33.30308         0.55272
C         19.46758        33.99912         0.04496
C         20.70770        36.10862        -0.44445
C         19.52440        35.40991        -0.41138
C         20.72585        37.50063        -0.87364
C         19.46698        38.19953        -1.07361
C         20.66824        40.29123        -1.65714
C         19.42553        39.57987        -1.32073
C         20.70815        41.75999        -1.57941
C         19.40695        42.46814        -1.72415
C         20.66150        44.66654        -1.34520
C         19.38270        43.98609        -1.62530
C         20.67586        46.02632        -1.13562
C         19.45615        46.76022        -0.88631
C         20.69699        48.92239        -0.61520
C         19.48942        48.12725        -0.58040
C         20.71447        50.28334        -0.34149
C         19.41809        51.06380        -0.52132
C         20.68980        53.06024         0.54270
C         19.34202        52.41741         0.27909
C         20.78689        54.30268         1.36220
C         19.54706        54.92479         1.80958
C         20.75305        57.01439         2.38343
C         19.57468        56.22485         2.36446
C         20.82150        58.29887         2.92522
C         23.26099         3.34160         1.37608
C         22.03823         4.00202         1.25445
C         23.20986         6.11371         0.75972
C         21.99536         5.39448         0.97391
C         23.15409         7.50592         0.49357
C         21.91898         8.18845         0.50933
C         23.12508        10.39263         0.54271
C         21.85881         9.66147         0.15592
C         23.13516        11.78971         0.69825
C         21.84612        12.53184         0.60123
C         23.18102        14.67351         0.20329
C         21.88580        13.98426         0.25332
C         23.19080        16.02775        -0.03951
C         21.99577        16.70782        -0.45134
C         23.32033        18.94460        -0.40217
C         22.02637        18.14483        -0.73998
C         23.24723        20.35391        -0.04770
C         21.99436        21.05699        -0.50452
C         22.92004        22.99977         0.97441
C         21.81115        22.32690         0.27067
C         22.67508        24.42666         1.20665
C         21.75513        25.17710         0.50607
C         23.34085        27.73861         1.81348
C         21.64228        26.59308         0.82388
C         23.26547        29.02862         1.36494
C         22.18845        29.70352         0.51243
C         23.19169        31.93759         0.82040
C         22.05061        31.18882         0.76135
C         23.18237        33.38460         0.58000
C         21.97726        34.02246         0.39147
C         23.21956        36.04769        -0.38584
C         21.93868        35.52968         0.22923
C         23.22366        37.45299        -0.89659
C         21.93783        38.16896        -1.00932
C         23.23132        40.32648        -1.32679
C         21.99295        39.54582        -1.50139
C         23.19462        41.72240        -1.37975
C         21.91337        42.42017        -1.47014
C         23.22303        44.60345        -1.09377
C         21.90348        43.87729        -1.20072
C         23.23523        46.06452        -1.22306
C         21.95109        46.76988        -1.26801
C         23.23009        48.92015        -0.74849
C         21.94961        48.26774        -1.03556
C         23.23865        50.28365        -0.34031
C         21.96727        51.00557        -0.19582
C         23.22081        53.07988         0.32681
C         21.95114        52.33067         0.22244
C         23.26207        54.32971         1.15894
C         21.97261        54.97244         1.49280
C         23.27695        57.16309         1.93448
C         21.97676        56.41467         1.81405
C         23.27717        58.46631         2.61424
C         22.05697        59.02804         3.05314
C         23.31667        60.95692         3.88907
C         22.09877        60.29681         3.69300
C         24.45981         4.03424         1.23155
C         25.68460         6.12384         0.85293
C         24.47464         5.42415         0.91273
C         25.74577         7.50841         0.40438
C         24.40962         8.22658         0.16218
C         25.68289        10.44643         0.54812
C         24.40323         9.72126         0.25326
C         25.58154        11.77907         1.27018
C         24.32525        12.51855         0.89498
C         25.64498        14.69939         0.88976
C         24.47453        13.89854         0.32791
C         25.61829        16.06015         0.77238
C         24.33704        16.81893         0.53851
C         25.67664        18.94684         0.25328
C         24.51001        18.21652         0.01258
C         25.62185        20.34333         0.47017
C         24.36522        21.02127         0.47265
C         25.54190        23.31323         0.76825
C         24.31130        22.40143         1.17542
C         25.64843        24.77549         1.29029
C         24.59323        25.56861         1.79164
C         25.80944        27.64216         1.50108
C         24.59944        26.98504         1.82892
C         25.82149        29.08381         1.37469
C         24.52928        29.79910         1.44706
C         25.76164        31.91044         0.77694
C         24.49406        31.27029         1.14120
C         25.72504        33.38212         0.67483
C         24.45484        34.09790         0.44532
C         25.72672        36.13367        -0.26087
C         24.49695        35.41593         0.01827
C         25.70890        37.52668        -0.66550
C         24.48622        38.21743        -0.89958
C         25.69808        40.33845        -1.17353
C         24.46606        39.61210        -1.12083
C         25.69107        41.75601        -1.32580
C         24.44533        42.46418        -1.33937
C         25.70291        44.60003        -1.36870
C         24.47832        43.86964        -1.32190
C         25.69960        46.03398        -1.26513
C         24.43549        46.75764        -1.23215
C         25.65060        48.82318        -0.69154
C         24.42294        48.19062        -0.97290
C         25.64636        50.07371        -0.05246
C         24.47540        50.88135         0.00527
C         25.78031        53.07630         0.67350
C         24.54853        52.34974         0.22716
C         25.81112        54.58720         0.60719
C         24.56066        55.03957         1.39388
C         25.74618        57.31749         1.48393
C         24.59962        56.42335         2.02793
C         25.73091        58.59272         2.29346
C         24.53766        59.13454         2.79944
C         24.51895        60.40123         3.46471
C         26.94630         8.30922         0.70326
C         28.11708        10.45273         1.04615
C         26.93743         9.68119         0.78414
C         28.10890        11.84415         1.17771
C         26.85777        12.59027         1.18231
C         28.11565        14.69440         1.72794
C         26.86089        13.96441         1.23751
C         28.07363        16.16320         1.35087
C         26.78753        16.92212         1.19076
C         28.24776        18.97868         0.37269
C         26.95224        18.12211         0.21966
C         28.07443        20.33477         1.08169
C         26.90316        21.14642         0.51519
C         28.13058        23.24467         0.78618
C         26.83900        22.54571         1.18475
C         28.07907        24.69928         0.58752
C         26.86876        25.45338         1.03830
C         28.25105        27.55206         1.21919
C         26.95605        26.85433         1.22314
C         28.27780        29.09740         1.24059
C         26.98485        29.79556         1.13744
C         28.22477        31.85073         0.47121
C         26.96819        31.20695         0.79803
C         28.19700        33.25867        -0.08945
C         27.00760        34.08526         0.35673
C         28.19430        36.13332        -0.40159
C         26.95722        35.47583        -0.13412
C         28.18958        37.52774        -0.68694
C         26.93825        38.23328        -0.79526
C         28.15044        40.37455        -1.16137
C         26.92921        39.63985        -1.05579
C         28.15536        41.75204        -1.36103
C         26.92275        42.47198        -1.40516
C         28.19333        44.61640        -1.40046
C         26.94075        43.89970        -1.44939
C         28.17848        46.02682        -1.19959
C         26.93379        46.71613        -1.18257
C         28.25074        48.85313        -0.54179
C         26.93113        48.17005        -1.00106
C         28.12135        50.03423         0.33720
C         26.85574        50.43192         0.64472
C         28.20011        52.99475         1.31483
C         26.83538        52.47795         1.28340
C         28.27072        54.40267         1.35293
C         27.07552        55.19687         1.22148
C         27.03593        56.52690         1.57058
C         29.33135        12.57911         1.14348
C         30.69715        14.55933         1.09832
C         29.41639        13.96367         1.31151
C         31.04604        15.87517         1.47707
C         29.15962        16.95937         1.61585
C         30.61609        18.92284         1.13893
C         29.37803        18.27356         1.10711
C         30.60060        20.38101         0.92671
C         29.38849        21.10069         0.93248
C         30.61851        23.21392         0.57429
C         29.35605        22.53091         0.77193
C         30.67274        24.66856         0.50656
C         29.40119        25.42990         0.44943
C         30.64734        27.56577         0.72052
C         29.46597        26.86694         0.79371
C         30.67946        29.00794         0.66246
C         29.50922        29.75835         0.79388
C         30.68679        31.85667         0.15566
C         29.44486        31.17207         0.47833
C         30.71269        33.21577        -0.09660
C         29.47683        34.02786         0.23158
C         30.62825        36.09064        -0.61897
C         29.43901        35.43263        -0.33319
C         30.65072        37.50949        -0.82418
C         29.42262        38.21071        -0.79860
C         30.71948        40.39299        -1.01237
C         29.41667        39.67864        -0.86134
C         30.72932        41.74854        -1.64971
C         29.42211        42.47507        -1.67065
C         30.67001        44.61101        -1.27656
C         29.44180        43.94227        -1.50988
C         30.64345        45.94162        -0.81734
C         29.40963        46.68040        -0.80922
C         30.48006        48.46874         0.62297
C         29.40379        47.99955        -0.32618
C         30.49335        49.96471         0.84568
C         29.31434        50.69333         0.89191
C         29.30305        52.10130         1.24979
C         32.01836        16.76981         1.03303
C         33.06968        18.96170         1.02619
C         31.89870        18.20921         1.16685
C         33.08807        20.37692         0.86902
C         31.83062        21.09188         0.76679
C         33.10173        23.20603         0.15147
C         31.82229        22.48955         0.55492
C         33.18528        24.63748         0.69509
C         31.86064        25.34868         0.56513
C         32.89513        27.40936        -0.40498
C         31.96356        26.84336         0.68256
C         32.99657        28.91707        -0.20556
C         31.92892        29.63980         0.23584
C         33.18131        31.78865        -0.27172
C         31.99772        31.13973         0.40248
C         33.14845        33.20972        -0.50505
C         31.92814        33.88826        -0.46638
C         33.12794        36.01602        -1.20395
C         31.85382        35.29805        -0.88507
C         33.18586        37.46353        -0.77354
C         31.89936        38.20862        -0.96755
C         33.18950        40.31897        -0.97606
C         31.96960        39.60484        -1.03164
C         33.12114        41.82110        -0.81441
C         32.09184        42.43890        -1.79478
C         33.19445        44.60269        -0.91852
C         32.01453        44.01688        -1.69384
C         33.11118        45.88857        -0.43661
C         31.85997        46.61157        -0.35619
C         31.79899        47.84191         0.26016
C         34.29827        21.07867         0.84088
C         35.53426        23.18596         0.60400
C         34.36371        22.47736         0.55571
C         35.67919        24.57403         0.02028
C         34.35189        25.37728         0.03452
C         35.40607        27.47672        -0.75896
C         34.23288        26.66811        -0.41355
C         35.48765        28.82364        -0.56644
C         34.20570        29.58770        -0.80013
C         35.60176        31.70705        -0.72590
C         34.31310        31.06167        -0.54563
C         35.62158        33.15610        -0.88514
C         34.38157        33.88506        -0.86256
C         35.62119        35.93395        -1.47991
C         34.38580        35.24909        -1.13756
C         35.63379        37.51988        -1.53078
C         34.40889        38.22802        -1.20016
C         35.69914        40.33782        -1.08462
C         34.42797        39.62016        -1.05364
C         35.67592        41.74321        -1.01626
C         34.47162        42.49465        -0.95563
C         34.43949        43.88339        -0.89435
C         36.81287        25.35742         0.70293
C         38.25817        27.51410         0.36420
C         37.25019        26.49269         0.10865
C         38.08694        28.83577        -0.00495
C         36.72178        29.55689        -0.05277
C         38.02041        31.79836        -0.24313
C         36.77418        30.99181        -0.54261
C         38.10489        33.04496        -1.13237
C         36.83524        33.85072        -1.03332
C         38.10983        35.98583        -1.23415
C         36.88111        35.24541        -1.24795
C         38.10923        37.39474        -1.26979
C         36.92790        38.19042        -1.30930
C         36.91095        39.58416        -1.12381
C         39.28154        29.65202        -0.05786
C         40.52569        31.76376        -0.36448
C         39.30033        31.00597        -0.27965
C         40.54725        33.11734        -0.58838
C         39.34714        33.86987        -0.86358
C         39.33229        35.23831        -1.00177
O         13.80029        31.15428        -2.16140
O         27.77465        48.94548        -1.91729
O         26.66214        51.19419         1.79883
O         36.58771        26.80909        -1.10643
O         22.16911        27.00395         2.05503
O         16.73112        21.61669         0.84083
O         24.09434        54.06014         2.37847
O         35.56179        36.70048        -2.73118
O         23.42792        24.96175         2.24565
O         14.26556        38.04940         1.08744
O         19.76449        33.94589         1.52061
O         21.36394        39.73322        -2.81925
O         19.06203        13.85157        -2.09683
O         18.10839        31.27749        -2.06943
O         25.14988         7.69577        -0.95764
O         22.91055        18.59988        -1.81607
O         23.20331        36.27290        -1.82387
O         11.52184        27.09182         1.20535
O         30.00762        41.86697        -2.91812
O         22.57777        57.15130         0.65923
O         25.18638        10.42780        -0.81598
O         15.37977        46.61491        -2.15444
O         30.16254        16.42778         2.43404
O         28.58669        25.14304        -0.73719
O         15.35429        20.53143        -2.24536
O         22.51400        44.15123         0.13437
O         20.70994        27.11610        -1.27986
O         24.50400        30.78872         2.54966
O         23.96426        53.09266        -0.93473
O         32.26953        35.59617        -2.29630
O         15.91146        32.70967        -2.23911
O         14.20101        31.31600         1.09303
O         16.64709        43.32678        -2.69839
O         10.15467        29.21560        -1.59013
O         30.08297        40.34288         0.30942
O         17.01268        50.80972        -0.41695
O         21.92925        22.16670         1.72836
O         21.87057        47.72140        -2.39784
O         16.86661        26.08344        -2.15033
O         19.84164        53.45409        -0.62216
O         21.64229        13.49925         1.69915
O         19.37534        43.30722        -2.93870
O         26.59449        33.96368         1.74093
O         15.98771        16.13974        -1.86579
O         28.45237        28.31780         2.46349
O         16.08517        27.25296         1.23685
H         15.25291        27.49990         1.69599
O         24.88211        56.25491         3.43523
H         24.54582        55.36502         3.69404
O         23.83307        17.12981         1.89979
H         24.60857        17.48924         2.40345
O         32.62978        27.13812         1.95749
H         31.93655        27.29047         2.63440
O         30.11528        47.88838         1.94872
H         30.26017        46.91928         1.89314
O         25.46854        23.47166        -0.65686
H         26.10782        22.85702        -1.09301
O         27.20389        21.44405        -0.88005
H         27.73692        20.68877        -1.25046
O         22.22562        21.41813        -1.89594
H         22.42422        20.58028        -2.37634
O         36.03031        24.29662        -1.35926
H         36.27654        25.15842        -1.77289
O         19.90804        16.64641        -2.76477
H         19.81951        15.70641        -3.04564
O         24.41486        22.11241         2.57781
H         23.51486        21.85996         2.88618
O         32.57581        42.09139        -3.10734
H         31.78266        41.98712        -3.68442
O         32.61183        42.12044         0.51372
H         33.21706        41.72567         1.17487
O         33.35680        37.33738         0.70571
H         33.22738        38.23098         1.09113
O         28.06814        33.14106        -1.52880
H         28.85316        32.66366        -1.87172
O         19.39946        51.39703        -1.93322
H         19.77682        52.30739        -2.01691
O         20.04180        31.45172         1.99224
H         19.65715        32.28489         2.35533
O         12.79758        40.17146        -2.31957
H         13.52109        40.59454        -2.82993
O         16.74203        39.36188        -2.90738
H         16.95469        40.21273        -3.34837
O         24.86768        13.64693        -1.08873
H         24.94458        12.67310        -1.22449
O         32.29652        27.21201        -1.71294
H         32.26277        26.24732        -1.89403
O         13.61565        35.56943         1.49998
H         14.03594        36.33708         1.95265
O         14.31641        45.84816        -2.73057
H         14.79381        45.15378        -3.24975
O         20.61969        31.26931        -1.58499
H         20.03535        31.07846        -2.35669
O         26.47608        17.47226         2.51591
H         26.61827        16.74909         3.16634
O         26.86486        22.52842         2.61997
H         27.13048        21.63248         2.93695
O         21.89351        36.06952         1.58960
H         21.15596        35.60824         2.05137
O         33.49259        24.55176         2.11014
H         33.45014        25.47766         2.45344
O         11.78626        35.62300        -1.66906
H         11.01453        35.09091        -1.95495
O         32.18883        44.54035        -3.03469
H         32.72695        43.87265        -3.52582
O         18.40649         7.41062         0.00846
H         18.68558         7.46135        -0.92874
O         33.05809        23.33123        -1.29504
H         33.25575        22.45520        -1.68643
O         27.81427        20.07337         2.47954
H         28.55223        19.53245         2.83521
O         20.76035        10.31620         2.21943
H         21.23739        11.12496         2.50438
O         27.04209        17.52185        -1.10105
H         26.20506        17.04557        -1.29218
O         25.71649        55.08916        -0.74407
H         25.04869        54.52666        -1.21472
O         33.98584        29.51549        -2.26149
H         33.44818        28.70811        -2.44228
O         12.82627        20.04510        -2.64669
H         13.69108        19.97877        -3.11587
O         36.42855        29.71139         1.39018
H         36.88158        30.53540         1.69129
O         19.22582        22.31703         1.48398
H         18.31163        21.97824         1.66074
O         29.50061        34.18849         1.67705
H         30.32975        34.64812         1.92438
O         22.81392        29.65830        -0.82966
H         22.19954        30.15163        -1.43154
O         11.20531        37.52955         2.20238
H         11.30586        38.47379         2.44777
O         28.05528        14.63073         3.19327
H         28.88892        15.04723         3.51202
O         25.48608        57.68686         0.11225
H         25.58374        56.87396        -0.44767
O         25.48212        11.40797         2.68782
H         25.50437        12.23394         3.21634
O         16.41777        47.74895         2.25012
H         16.35105        46.78638         2.07205
O         14.21695        35.52328        -2.13144
H         14.75689        34.88536        -2.64594
O         17.13631        29.89485         1.09471
H         16.98981        29.04164         1.56872
O         37.86233        32.22651         1.15236
H         38.71159        32.62768         1.43740
O         15.97609        18.72848         0.93773
H         15.91502        17.80666         1.26727
O         38.20499        32.55842        -2.49873
H         38.18237        33.33209        -3.09979
O         21.70277         9.76516        -1.28895
H         22.53250         9.44986        -1.70743
O         32.24730        31.36593         1.83998
H         31.45599        31.05052         2.32751
O         28.73005        19.28970        -0.95735
H         28.49054        18.52512        -1.53363
H          5.04054        31.19097         0.78609
H          5.06566        33.63893         1.07851
H          7.37540        26.90765         0.02604
H          6.20757        29.07506         0.44636
H          6.27383        35.77754         1.10235
H          7.43167        37.94192         0.79327
H          9.82470        22.58821        -0.33686
H          8.61899        24.73226        -0.22037
H          8.63725        40.11458         0.43355
H          9.90792        42.24151         0.25736
H         12.29700        18.18425        -0.66264
H         11.02329        20.43647        -0.53971
H         11.15502        44.33310         0.28974
H         12.39892        46.38610         0.57678
H         14.95300        13.65903         0.06757
H         13.68090        16.25086         0.57691
H         13.75549        48.29703         1.25784
H         15.64057        50.02044         2.56609
H         17.34836         9.65642        -0.25380
H         16.11867        11.76539        -0.45694
H         16.42650        52.62728         2.32145
H         17.47896        54.58539         2.28577
H         19.82436         5.54336         1.09591
H         18.99611         8.06952         1.86235
H         18.64012        56.65262         2.75721
H         19.90670        58.75639         3.33102
H         23.27853         2.26692         1.60536
H         21.09603         3.45455         1.39845
H         23.32152        61.93624         4.38841
H         21.16338        60.75568         4.04384
H         25.41760         3.50760         1.34951
H         26.61404         5.62741         1.17051
H         26.66818        59.15782         2.42075
H         25.46319        60.94361         3.61553
H         27.87193         7.76283         0.94163
H         29.08523         9.92886         1.05107
H         29.23457        54.91307         1.50036
H         27.93763        57.00750         1.98259
H         30.25929        12.01539         0.95844
H         31.44670        13.94663         0.57245
H         31.44226        50.43243         1.14990
H         30.30010        52.55464         1.38143
H         32.89549        16.39026         0.48699
H         34.03435        18.43249         1.00640
H         34.00006        46.35284         0.01992
H         32.72221        48.29307         0.65587
H         35.23744        20.53224         1.01913
H         36.46438        22.66680         0.88687
H         36.62920        42.29351        -1.05862
H         35.37674        44.45128        -0.77519
H         37.21983        25.01182         1.66347
H         39.26360        27.18834         0.68273
H         39.07579        37.91376        -1.17380
H         37.86670        40.11902        -1.01025
H         40.24595        29.12034         0.00644
H         41.47490        31.22650        -0.21529
H         41.50866        33.65338        -0.57623
H         40.26951        35.80421        -0.87783
