         276
 CSIRO Nanostructure Databank - Neutral Graphene Oxide Data Set
C        -10.73476         0.56511         1.28778
C         -9.39255         1.24007         1.10416
C         -8.76481         0.78731        -0.24346
C         -7.38138         1.41700        -0.39893
C         -6.13674         0.63091        -0.65018
C         -4.80923         1.34802        -0.64561
C         -3.69375         0.50023        -1.20693
C         -2.34285         1.25025        -1.15835
C         -1.27440         0.68918        -0.31822
C         -0.03844         1.43465        -0.06299
C          0.83128         0.91167         1.07753
C          1.98883         1.83011         1.31407
C          3.80135         0.70324         1.73345
C          4.79824         1.41634         1.16349
C          5.78710         0.72315         0.29258
C          7.00742         1.46114        -0.16875
C          8.14548         0.73730        -0.92232
C          9.50473         1.41470        -0.86549
C         10.61555         0.59976        -1.36358
C         -9.42587         2.76524         1.10171
C         -8.34215         3.50329         0.69173
C         -7.08818         2.72784         0.32832
C         -6.08473         3.57263        -0.48772
C         -4.76266         2.82516        -0.74396
C         -3.66210         3.50709        -1.58766
C         -2.28349         2.73851        -1.51459
C         -0.89948         3.50201        -1.51281
C          0.19671         2.79984        -0.66883
C          1.47341         3.61645        -0.37725
C          2.31852         2.98927         0.70705
C          3.54222         3.71050         1.18866
C          4.86135         2.89957         1.51344
C          6.12921         3.62221         0.98804
C          7.28374         2.81213         0.43453
C          8.52830         3.53429        -0.00981
C          9.59654         2.75833        -0.69995
C         -8.25420         4.94504         0.74722
C         -7.06523         5.64760         0.53708
C         -5.79127         4.86732         0.27892
C         -4.73570         5.67838        -0.43846
C         -3.62654         5.01768        -1.20495
C         -2.33371         5.77152        -1.31024
C         -1.02514         5.02386        -1.34912
C          0.23484         5.79626        -1.00181
C          1.09470         5.10709         0.06996
C          2.37653         5.88746         0.37507
C          3.57060         5.18809         0.94900
C          4.88062         5.88311         0.76177
C          6.15312         5.11054         0.73648
C          7.31588         5.72153         0.02754
C          8.43928         5.00023        -0.20943
C         -6.94447         7.05947         0.62278
C         -5.71342         7.75790         0.48793
C         -4.53701         7.02455         0.15336
C         -3.23648         7.59525         0.08045
C         -2.23880         7.14750        -0.76765
C         -1.09692         8.03757        -1.30425
C          0.25604         7.29687        -1.10210
C          1.50046         8.06408        -0.62500
C          2.41591         7.23717         0.26318
C          3.64206         7.97891         0.67855
C          4.91536         7.22697         0.59690
C          6.24021         7.96231         0.55100
C          7.22760         7.19276        -0.35433
C         -5.78163         9.22172         0.46348
C         -4.82752        10.12973         0.09988
C         -3.41598         9.80403        -0.02460
C         -2.41219        10.21813        -0.83566
C         -1.12588         9.46367        -0.74062
C         -0.03154        10.08250        -0.23492
C          1.26775         9.45736        -0.08027
C          2.34894        10.14848         0.36555
C          3.65212         9.46768         0.60111
C          4.93966        10.10759         0.23353
C          6.08719         9.41373         0.14100
C        -10.91316        -0.72882         0.98017
C         -9.90706        -1.54469         0.23980
C         -8.76168        -0.74545        -0.46512
C         -7.48609        -1.49746        -0.77231
C         -6.17658        -0.83626        -0.64514
C         -4.98135        -1.57467        -0.66318
C         -3.73294        -0.77980        -0.34705
C         -2.42638        -1.51036        -0.46020
C         -1.32956        -0.70632         0.15513
C         -0.13761        -1.42375         0.73125
C          1.19525        -0.65755         0.73898
C          2.29954        -1.44851         1.49350
C          3.62741        -0.76223         1.71722
C          4.90113        -1.47995         1.40386
C          5.90204        -0.77458         0.51726
C          6.98695        -1.56723        -0.17797
C          8.17717        -0.78884        -0.66152
C          9.55191        -1.35139        -0.31804
C         10.62445        -0.73836        -1.18707
C         -9.66086        -2.93327         0.54031
C         -8.85208        -3.74342        -0.43970
C         -7.49561        -3.01340        -0.72239
C         -6.19502        -3.71579        -0.45928
C         -4.95028        -2.96987        -0.73848
C         -3.66811        -3.69878        -0.89716
C         -2.37373        -2.98280        -0.59345
C         -1.25000        -3.72456         0.07924
C         -0.11770        -2.94399         0.71151
C          1.17453        -3.63807         0.97331
C          2.31479        -2.94877         1.29419
C          3.57666        -3.72295         1.79236
C          4.91585        -2.97326         1.58850
C          6.17791        -3.67093         1.20022
C          7.10362        -3.08733         0.12285
C          8.54029        -3.58673         0.24046
C          9.60046        -2.85229        -0.14930
C         -8.67066        -5.20879        -0.11678
C         -7.48586        -5.93249        -0.28565
C         -6.17289        -5.20708        -0.30163
C         -5.03464        -5.92142        -1.02720
C         -3.66369        -5.19464        -0.99928
C         -2.37021        -5.93209        -0.67399
C         -1.13844        -5.19991        -0.19651
C         -0.06509        -5.93565         0.54850
C          1.06462        -5.13700         1.10895
C          2.36689        -5.87988         1.29899
C          3.60830        -5.05527         0.99722
C          4.88197        -5.88850         1.11057
C          6.18044        -5.17142         1.09198
C          7.35687        -5.77198         0.38870
C          8.67054        -5.05689         0.63232
C         -7.45179        -7.33466        -0.33456
C         -6.15628        -8.05768        -0.09200
C         -4.95174        -7.43086        -0.78464
C         -3.65928        -8.16725        -0.66881
C         -2.48211        -7.35174        -0.13675
C         -1.13188        -8.09408        -0.20266
C         -0.06323        -7.31073         0.56615
C          1.11903        -8.11730         0.96509
C          2.42273        -7.35973         1.05781
C          3.56947        -7.91820         0.32857
C          4.92799        -7.29602         0.49907
C          5.77314        -7.24059        -0.80717
C          7.18473        -6.82200        -0.44538
C         -6.16771        -9.55778        -0.23389
C         -5.03169       -10.27011        -0.26517
C         -3.64099        -9.69380        -0.45670
C         -2.61438       -10.13350         0.59261
C         -1.25367        -9.51996         0.30980
C         -0.12313       -10.23428         0.43120
C          1.23935        -9.58761         0.49281
C          2.19434        -9.68249        -0.67480
C          3.39691        -8.97032        -0.60592
C          4.52219        -9.28891        -1.49795
C          5.63599        -8.53516        -1.56938
O         -4.31523         2.15582         0.46749
O          8.40971         2.92860         1.34589
O         -5.99440        -4.38950         0.87354
O          5.67875        -5.81142         2.32343
O          6.65901        -3.81269        -1.02534
O         -6.94142         1.26049        -1.76114
O         -1.28850        -5.62808        -1.59716
O          2.77237         1.39521         2.40548
O         -1.64395         5.55219        -2.57091
O         -4.28976        -7.97123        -1.97915
O          1.55136        -5.54666         2.43017
O          3.60563         8.78231         1.92127
O         -7.52461        -2.34349        -1.99510
O          3.29586         4.64541         2.28771
O          7.26120        -1.41333        -1.59835
O         -1.21705        -3.49175         1.51837
O          2.76227        -1.17802         2.84427
O         -2.02288        -2.10736        -1.72176
O         -2.10074         1.72144        -2.54635
O         -9.87995        -1.21036        -1.21545
O         -3.53770        -4.38972        -2.19750
O          6.09181        -0.87989         1.97903
O          0.26230         4.96429         1.15708
O          6.57263         4.55240         2.02339
O          0.66754         1.59989        -1.37984
O         -3.02991         8.74410         0.84530
O          5.99109        -3.25113         2.56862
O          5.79894         1.36497        -1.01408
O         -4.72909         5.70934        -1.90259
O          0.72754         6.43740        -2.21321
O         -1.17903        -0.93532         1.61645
O          1.79237        -8.00507         2.24514
O          3.48497        -4.65255        -0.38816
H          4.03067        -5.24370        -0.97854
O          9.76023        -0.81764         1.03257
H         10.65840        -1.07246         1.33043
O          9.01463        -5.13369         2.02399
H          8.27621        -4.76116         2.55161
O          5.26795        -6.18253        -1.67655
H          5.88401        -5.39699        -1.62683
O          7.85400         0.89905        -2.33275
H          7.15811         0.23772        -2.55869
O         -3.06850        -9.73247         1.89677
H         -2.40715       -10.01832         2.56066
O         -8.58716         0.74442         2.19399
H         -7.77023         1.30485         2.27131
O         -2.80272        -7.11735         1.25735
H         -3.05368        -7.97777         1.68667
O          6.80877         7.30927        -1.72298
H          5.90471         6.94163        -1.80627
O          5.62291        -8.17558         1.41258
H          5.88900        -7.61800         2.18813
O          1.94799       -10.35784         1.49899
H          2.30430        -9.70909         2.15938
O          2.22020         3.71972        -1.58375
H          1.58336         3.77978        -2.33659
O          2.32693         8.31334        -1.80335
H          2.17736         7.55912        -2.42146
O         -1.32960         8.19039        -2.71317
H         -1.14233         7.31551        -3.13293
O          6.80155         7.94790         1.88425
H          6.10425         8.25335         2.50322
O         -6.52425         2.30022         1.59395
H         -5.92777         3.01367         1.93782
O         -9.58748         1.37316        -1.25908
H         -9.11387         1.28319        -2.11504
O         -5.84209        -7.78548         1.32524
H         -6.59764        -8.09250         1.86967
O          4.96946         2.87592         2.94166
H          5.18385         3.79024         3.23587
O         -5.53602        -5.80957        -2.38272
H         -4.91808        -6.29949        -2.97012
O         -3.91581        -0.42309         1.04099
H         -3.09076        -0.55798         1.55877
O         -5.19504         4.55399         1.57099
H         -5.15438         5.37895         2.10029
O          1.73684        -0.72885        -0.59245
H          1.28801        -0.09937        -1.20190
O         -6.73396         3.90139        -1.71367
H         -6.07974         4.34590        -2.30461
O         -9.60235        -3.77818        -1.68149
H         -9.20839        -3.11257        -2.29750
O         -3.14550       -10.27451        -1.68326
H         -3.58353        -9.80100        -2.42559
O         -0.35989         3.41873        -2.85446
H         -0.37150         2.46465        -3.10450
O          0.08187         0.99433         2.28997
H          0.72113         0.99371         3.03622
O         -0.68981        -8.21785        -1.56985
H         -0.70777        -7.31545        -1.97499
O         -4.10807         3.43150        -2.94655
H         -3.47642         3.93341        -3.50541
O          3.42141        -3.98593         3.17963
H          3.41519        -3.12578         3.65376
O         -4.00347         0.09960        -2.53861
H         -3.59954         0.75323        -3.15560
H         11.45144        -1.35924        -1.56301
H         11.44557         1.10546        -1.88144
H         10.56509         3.26332        -0.84897
H          9.29253         5.48758        -0.70817
H          8.24038         7.65867        -0.28404
H          7.00748         9.93510        -0.16488
H          4.91936        11.17373        -0.04215
H          2.24813        11.20189         0.67235
H         -0.12210        11.12448         0.10977
H         -2.51705        11.05445        -1.54259
H         -5.14226        11.17091        -0.07320
H         -6.80454         9.61434         0.58772
H         -7.85610         7.64785         0.81042
H         -9.16705         5.51030         0.99427
H        -10.33761         3.27512         1.45293
H        -11.53949         1.12355         1.79014
H        -11.87343        -1.22017         1.20155
H         -9.99892        -3.35386         1.49815
H         -9.60950        -5.78054        -0.04657
H         -8.39696        -7.89932        -0.31893
H         -7.13871       -10.07557        -0.17798
H         -5.08871       -11.36977        -0.29742
H         -2.52367       -11.25302         0.56899
H         -0.16526       -11.29530         0.72470
H          2.08730       -10.49686        -1.40735
H          4.42597       -10.19275        -2.11802
H          6.44155        -8.81336        -2.26620
H          8.03550        -7.24683        -1.00067
H          9.49677        -5.54378         0.05786
H         10.60345        -3.31325        -0.13308
