         244
 CSIRO Nanostructure Databank - Neutral Graphene Oxide Data Set
C          1.38822         2.16234        -0.92330
C          1.33300         3.54556        -0.63840
C          2.56080         1.45762        -0.77785
C          2.45927         4.24799        -0.19334
C          1.25725         6.45720        -0.24398
C          1.25662         7.84164        -0.13456
C          2.42577         5.70364        -0.00759
C          2.42826         8.56168         0.17809
C          1.23955        10.81032        -0.11702
C          1.20798        12.14826         0.07049
C          2.42808        10.02170         0.19447
C          2.36610        12.87245         0.73046
C          1.25389        15.12007         0.57322
C          1.27841        16.51335         0.45966
C          2.42203        14.36026         0.46372
C          2.49154        17.19064         0.25496
C          2.54523        18.62767         0.17986
C          3.74286         2.11101        -0.29051
C          3.68197         3.52984         0.00763
C          4.91708         1.40237        -0.09150
C          4.86486         4.20026         0.42116
C          3.59270         6.40227         0.39095
C          3.61725         7.81802         0.45480
C          4.79986         5.63452         0.74225
C          4.88054         8.50724         0.69149
C          3.60858        10.71474         0.42113
C          3.65460        12.15731         0.41551
C          4.86089         9.98783         0.70355
C          4.83850        12.84153         0.17388
C          3.66593        15.01423         0.23875
C          3.69956        16.43927         0.14063
C          4.88516        14.26937         0.09843
C          4.94388        17.11393        -0.03680
C          3.73398        19.27988         0.02745
C          4.97285        18.55419        -0.07890
C          6.09787         2.02545         0.59488
C          6.10767         3.53281         0.48313
C          7.39633         1.36358         0.23643
C          7.33180         4.25475         0.47174
C          6.12112         6.38243         0.93142
C          6.08468         7.85061         0.77997
C          7.36989         5.65079         0.63919
C          7.39718         8.59153         0.94274
C          6.14090        10.73049         0.48190
C          6.05177        12.05031        -0.24087
C          7.39064         9.97370         0.33601
C          7.36482        12.79094        -0.22344
C          6.12760        14.94262        -0.13543
C          6.14739        16.37462        -0.16391
C          7.35528        14.22025        -0.28528
C          7.39335        17.06314        -0.34984
C          6.18974        19.22359        -0.20347
C          7.41318        18.51715        -0.33282
C          8.54893         2.05555         0.04075
C          8.55516         3.55353        -0.08916
C          9.80381         1.40364        -0.24563
C          9.86302         4.17685         0.33292
C          8.57991         6.40073         0.47787
C          8.60103         7.79464         0.50871
C          9.87877         5.68308         0.17182
C          9.81322         8.54022         0.27031
C          8.54589        10.62898        -0.04576
C          8.54242        12.05923        -0.29764
C          9.81232         9.90738        -0.02085
C          9.81131        12.72874        -0.77303
C          8.60417        14.91780        -0.44035
C          8.58413        16.34614        -0.49723
C          9.83285        14.21566        -0.53533
C          9.81926        17.06429        -0.96538
C          8.64207        19.19362        -0.34316
C          9.86603        18.51056        -0.52891
C         11.02981         2.03441        -0.11108
C         11.05105         3.45340         0.35582
C         12.19023         1.33454        -0.64866
C         12.28917         4.17135         0.60025
C         11.03465         6.38020         0.86164
C         11.07856         7.86021         0.62237
C         12.33068         5.61555         1.05188
C         12.35838         8.52325         0.38080
C         11.05150        10.62875        -0.21817
C         11.08770        11.99830        -0.41251
C         12.27594         9.76996        -0.47218
C         12.35422        12.72470        -0.48405
C         11.08620        14.92146        -0.60014
C         11.09602        16.30817        -0.70756
C         12.35869        14.18331        -0.55488
C         12.36194        17.06141        -1.02423
C         11.08286        19.16413        -0.40427
C         12.33678        18.49886        -0.54312
C         13.48190         1.54150        -0.19125
C         13.52007         3.53605         0.71539
C         14.76125         1.28937        -0.75351
C         14.77372         4.14300         0.42173
C         13.53012         6.36433         0.54588
C         13.55144         7.75230         0.36879
C         14.79219         5.63556         0.20023
C         14.85311         8.40311         0.15689
C         13.58425        10.54475        -0.51312
C         13.54883        12.01633        -0.42305
C         14.88310         9.82834        -0.24888
C         14.86213        12.68872        -0.43594
C         13.56206        14.89242        -0.53352
C         13.61054        16.33003        -0.60724
C         14.86109        14.18714        -0.48710
C         14.79935        17.03149        -0.49030
C         13.52374        19.17079        -0.37132
C         14.79908        18.49751        -0.47037
C         15.92224         2.05172        -0.45646
C         15.92474         3.43664         0.04458
C         17.15610         1.48238        -0.89047
C         17.16973         4.22001        -0.01391
C         16.00246         6.29198         0.84922
C         16.03365         7.75763         0.42716
C         17.23015         5.52144         0.42218
C         17.30327         8.47197         0.41744
C         16.08750        10.60889         0.13701
C         16.05621        11.98095         0.08637
C         17.30549         9.89812         0.43087
C         17.19108        12.76850         0.68547
C         16.08787        14.91533        -0.06840
C         16.06551        16.36308        -0.22234
C         17.23267        14.22309         0.24713
C         17.22829        17.09622        -0.13309
C         15.97045        19.21016        -0.43974
C         17.31082        18.54144        -0.56372
C         18.38547         2.14161        -0.85347
C         18.43012         3.63575        -0.63198
C         19.59990         1.49588        -1.14619
C         19.69387         4.01069         0.16208
C         18.50370         6.26967         0.50564
C         18.51055         7.74427         0.40116
C         19.78263         5.52802         0.35558
C         19.77492         8.41192         0.43663
C         18.52659        10.63844         0.65040
C         18.52052        12.02808         0.67203
C         19.77666         9.84516         0.81291
C         19.76854        12.81737         0.84837
C         18.47578        14.96517         0.52772
C         18.46704        16.45272         0.30770
C         19.77813        14.25057         0.47349
C         19.73741        17.15985         0.09132
C         18.42219        19.29205         0.19683
C         19.73996        18.55011         0.09816
C         20.84396         2.16150        -1.03458
C         20.93681         3.42844        -0.47962
C         22.18112         4.13347        -0.29392
C         20.95558         6.28529        -0.24720
C         20.98498         7.73435         0.21810
C         22.21987         5.47572        -0.07488
C         22.20110         8.47782         0.10008
C         21.12710        10.57673         0.83365
C         21.12160        12.08348         0.83851
C         22.27361         9.82654         0.31454
C         22.25497        12.83227         0.28316
C         20.95203        14.91671         0.20849
C         20.98177        16.37786        -0.22462
C         22.17829        14.16799         0.05305
C         22.21491        17.14925         0.15988
C         20.96944        19.24297         0.10155
C         22.18483        18.51813         0.21880
O          5.34609         5.91343         2.08033
O          5.58672        10.63639         1.83701
O         20.52802        10.04948         2.05204
O         18.37572        15.87242         1.68796
O         19.38996         5.90063         1.69879
O         14.43883        10.08052        -1.63628
O         15.12505        13.40103        -1.71639
O         13.54304         2.18937         1.05513
O         20.55277        12.60042         2.07444
O         10.80148         7.23953         1.99275
O         15.88307         6.23196         2.28352
H         16.74031         6.49878         2.67666
O         12.03092         9.24765        -1.82101
H         12.91667         9.21628        -2.26133
O          5.89788         1.74057         2.03691
H          5.12380         2.26549         2.33397
O         18.06749        19.42075         1.57436
H         17.11276        19.63301         1.62964
O         18.56351         4.24903        -1.94177
H         17.72726         4.10983        -2.43260
O         16.84997        12.87858         2.12467
H         17.59488        13.34125         2.56851
O         19.60054         3.38604         1.45860
H         19.43869         4.10823         2.11363
O         21.01991        16.29195        -1.71437
H         21.00709        17.21293        -2.05482
O          9.75427        12.59963        -2.25717
H          9.88326        11.64921        -2.46929
O         14.98685         5.82604        -1.24259
H         14.14256         5.61637        -1.69439
O          5.83829        11.67276        -1.64690
H          5.92449        12.48481        -2.18990
O         12.56855         5.50658         2.49550
H         12.12428         6.28522         2.91098
O          7.57003         8.80858         2.38314
H          6.85217         9.43188         2.65556
O          2.14097        12.74786         2.17818
H          2.26064        11.80216         2.41055
O         17.71632        18.56330        -1.96957
H         16.99402        18.15637        -2.49366
O         20.67740         6.33317        -1.68288
H         21.46574         6.70101        -2.13332
O         10.15540         5.88800        -1.25712
H          9.47590         5.35136        -1.73983
O         12.42652        17.13901        -2.49216
H         11.51272        17.36734        -2.79874
O          9.68585        17.11799        -2.45235
H          9.53984        16.19466        -2.75526
O          8.45429         3.80067        -1.55916
H          9.02193         3.12722        -1.99394
H          0.48035         1.65498        -1.27859
H          0.37899         4.06596        -0.79435
H          2.60438         0.38422        -1.01072
H          0.31972         5.95662        -0.51930
H          0.31769         8.37800        -0.32448
H          0.35294        10.30537        -0.52617
H          0.28765        12.70796        -0.15347
H          0.29737        14.61830         0.77585
H          0.34601        17.08792         0.55660
H          1.60565        19.19343         0.26230
H          4.93387         0.31816        -0.28032
H          3.76555        20.37842        -0.01570
H          7.41981         0.26280         0.26079
H          6.20651        20.32373        -0.20529
H          9.78110         0.33967        -0.52716
H          8.66098        20.27618        -0.14506
H         12.00960         0.63286        -1.47760
H         11.08775        20.23984        -0.16495
H         14.87333         0.46414        -1.47459
H         13.51718        20.24376        -0.12350
H         17.14123         0.42855        -1.21243
H         15.93274        20.31106        -0.41980
H         19.58332         0.44042        -1.45796
H         18.54057        20.31747        -0.26315
H         21.75464         1.65145        -1.38444
H         23.12063         3.55862        -0.33730
H         23.18494         5.97391         0.09849
H         23.10496         7.95713        -0.24892
H         23.20877        10.35442         0.08296
H         23.17999        12.29659         0.02810
H         23.05801        14.68671        -0.35199
H         23.17442        16.62304         0.26163
H         20.98086        20.34120         0.13164
H         23.11703        19.07518         0.39392
