         344
 CSIRO Nanostructure Databank - Neutral Graphene Oxide Data Set
C          1.23837         3.37840        -0.35048
C          0.05696         4.04321        -0.19739
C          1.17216         6.22414        -0.18876
C          0.02237         5.47196        -0.11481
C          1.11806         7.72393         0.04736
C         -0.05899         8.43343        -0.57670
C          1.14435        10.57576        -0.53215
C         -0.05115         9.77316        -0.75302
C          1.14857        11.97489        -0.55097
C         -0.06561        12.75577        -0.74409
C          1.09741        14.86345        -0.06808
C         -0.09073        14.09454        -0.58598
C          1.12730        16.30853        -0.60107
C         -0.03236        17.11502        -0.04981
C          1.19006        19.16803        -0.66706
C         -0.00777        18.45166        -0.08295
C          1.21034        20.65843        -0.38509
C          0.04336        21.39666        -0.43538
C          1.19613        23.50215         0.05574
C          0.03331        22.79670        -0.20040
C          1.21789        24.95991         0.19717
C          0.04023        25.73548         0.00070
C          1.28149        27.79803         0.32947
C          0.06481        27.11217         0.09092
C          1.33322        29.22564         0.38808
C          3.66960         3.44460        -0.67564
C          2.48398         4.10472        -0.46206
C          3.64292         6.27607        -0.27942
C          2.44557         5.56122        -0.33827
C          3.64202         7.72494        -0.18381
C          2.40517         8.44950        -0.26529
C          3.61742        10.58470        -0.44446
C          2.39026         9.85274        -0.38273
C          3.63445        11.98891        -0.41990
C          2.38891        12.70884        -0.40680
C          3.61711        14.82865        -0.18968
C          2.39286        14.11099        -0.29182
C          3.59380        16.26646        -0.06408
C          2.43389        17.01524        -0.25446
C          3.60100        19.17031         0.10528
C          2.45242        18.44336        -0.23368
C          3.61970        20.59736         0.12184
C          2.45150        21.33196        -0.11892
C          3.65388        23.45820         0.22945
C          2.46018        22.78220         0.06089
C          3.65393        24.82718         0.84285
C          2.42508        25.62167         0.47873
C          3.72476        27.72495         0.67418
C          2.47707        27.04056         0.50794
C          3.75130        29.14343         0.69492
C          2.52502        29.87627         0.57525
C          6.21124         3.44848        -0.70981
C          4.92997         4.19934        -0.99018
C          6.09491         6.24167        -0.14630
C          4.92072         5.59566        -0.40718
C          6.11390         7.69185         0.25699
C          4.85368         8.40384        -0.15577
C          6.17716        10.58286        -0.41835
C          4.87259         9.82769        -0.47375
C          6.12042        12.04358        -0.27558
C          4.88052        12.71772        -0.31306
C          6.11707        14.85466        -0.10823
C          4.86049        14.13581        -0.18232
C          6.11616        16.23742         0.03920
C          4.85332        16.94605         0.28392
C          6.11904        19.20730         0.40424
C          4.84292        18.44816         0.44064
C          6.12489        20.55598         0.49421
C          4.84197        21.33384         0.65381
C          6.19525        23.46098         0.45922
C          4.95654        22.71959         0.00432
C          6.18750        24.84686         0.66643
C          4.95367        25.57698         0.67747
C          6.20128        27.68548         0.84167
C          4.95978        26.98272         0.73470
C          6.20386        29.12682         0.85376
C          4.99138        29.82371         0.78553
C          8.70734         3.38513        -0.53072
C          7.35944         4.06610        -0.37302
C          8.59762         6.24465        -0.69756
C          7.40450         5.52142         0.00434
C          8.56551         7.74378        -0.39612
C          7.39980         8.40833        -0.11590
C          8.63411        10.62373        -0.33554
C          7.40742         9.89663         0.15614
C          8.59496        11.99971        -0.40959
C          7.35910        12.74359        -0.23044
C          8.62779        14.87811        -0.24748
C          7.37285        14.14977        -0.20535
C          8.64980        16.28545        -0.11256
C          7.36466        16.99381        -0.10497
C          8.67520        19.08627         0.51240
C          7.38765        18.48391         0.14834
C          8.65773        20.48025         1.00205
C          7.39353        21.27134         0.80906
C          8.68463        23.43759         0.96533
C          7.50477        22.71813         0.36640
C          8.68530        24.82146         1.00107
C          7.43630        25.56505         0.85265
C          8.67088        27.71282         1.34506
C          7.42022        26.96042         0.94514
C          8.66565        29.16385         0.91273
C          7.44975        29.83178         0.83212
C         11.01981         3.56752         0.49804
C          9.86780         4.18016         0.03083
C         11.05016         6.31989        -0.11884
C          9.87093         5.58688        -0.19250
C         11.08445         7.69381        -0.74473
C          9.81062         8.47327        -0.50265
C         11.09170        10.56352        -0.75607
C          9.84098         9.86535        -0.55410
C         11.07529        12.00493        -1.04786
C          9.78408        12.76302        -0.84907
C         11.04383        14.93024        -0.68882
C          9.84171        14.21205        -0.55228
C         11.08003        16.33526        -0.44442
C          9.86018        17.02038        -0.15482
C         11.12908        19.16149         0.19645
C          9.86418        18.43793         0.18458
C         11.17577        20.53595         0.53999
C         10.00413        21.13586         1.29913
C         11.22392        23.43696         1.23877
C          9.91622        22.68069         1.30101
C         11.18110        24.88458         0.93228
C          9.94141        25.56719         1.02633
C         11.11061        27.68833         0.68472
C          9.93293        26.97972         0.98090
C         11.11432        29.15350         0.63456
C          9.89154        29.84228         0.74086
C         13.40041         3.71113         1.18534
C         12.21136         4.32049         0.71118
C         13.45004         6.46175         0.48264
C         12.23874         5.70168         0.34521
C         13.44278         7.87798         0.15379
C         12.31980         8.47802        -0.35992
C         13.55040        10.64685        -0.61417
C         12.30130         9.91006        -0.57713
C         13.53438        12.05068        -0.99484
C         12.34927        12.74982        -1.06618
C         13.57530        15.01011        -1.12484
C         12.26997        14.23152        -1.16510
C         13.56505        16.39973        -0.61527
C         12.33068        17.07034        -0.44031
C         13.57508        19.18807        -0.13740
C         12.33565        18.47502        -0.13947
C         13.58930        20.58950         0.12418
C         12.39159        21.24193         0.49574
C         13.56948        23.43109         0.28375
C         12.52547        22.64297         1.09090
C         13.69331        24.88556         0.78297
C         12.36471        25.60050         0.67339
C         13.47840        27.71263        -0.15072
C         12.31471        26.98444         0.46245
C         13.54227        29.18143         0.17850
C         12.32815        29.84768         0.46763
C         15.80499         3.81621         1.77518
C         14.57997         4.44772         1.31252
C         15.84687         6.62070         1.30302
C         14.59420         5.83760         0.97850
C         15.91505         7.98198         0.65940
C         14.62444         8.74076         0.56465
C         16.01847        10.68304        -0.35830
C         14.72721        10.03092        -0.21557
C         16.07548        11.99817        -0.85435
C         14.84107        12.70442        -1.19875
C         16.11635        14.88890        -0.73198
C         14.87095        14.25769        -1.20047
C         16.06717        16.28500        -0.15096
C         14.79765        17.07146        -0.42667
C         16.06839        19.19516        -0.24386
C         14.81040        18.47031        -0.26960
C         16.09072        20.56468        -0.05449
C         14.86575        21.31261         0.13582
C         16.16839        23.49090         0.36489
C         14.88815        22.68527         0.27849
C         15.99791        24.82638        -0.37919
C         14.82657        25.63262         0.12066
C         16.00768        27.73081        -0.35419
C         14.79586        26.98330        -0.05089
C         15.96167        29.16869        -0.35734
C         14.73719        29.85447        -0.04199
C         18.24560         3.82561         2.11707
C         17.01854         4.43985         1.66856
C         18.34771         6.56190         1.23119
C         17.08368         5.78223         0.96477
C         18.38435         7.92458         0.87765
C         17.14174         8.61123         0.47814
C         18.52896        10.56969        -0.21048
C         17.20426         9.94975        -0.02685
C         18.61145        12.00409        -0.72431
C         17.35725        12.74307        -1.20169
C         18.56057        14.91166        -0.58658
C         17.30335        14.20099        -0.75101
C         18.55153        16.34678        -0.60641
C         17.32546        17.05488        -0.46661
C         18.52211        19.16137        -0.72981
C         17.31564        18.45418        -0.46618
C         18.41108        20.64651        -0.96008
C         17.43274        21.27444         0.03015
C         18.47668        23.46490        -0.58173
C         17.36669        22.76257        -0.18724
C         18.47281        24.93016        -0.53978
C         17.28874        25.61108        -0.43446
C         18.44748        27.80168        -0.66930
C         17.23726        27.06167        -0.47125
C         18.38165        29.22767        -0.77565
C         17.13994        29.88699        -0.59989
C         19.42285         4.51094         2.12057
C         20.69417         6.63532         1.86215
C         19.49530         5.90375         1.72212
C         20.74653         7.97053         1.49464
C         19.60749         8.63991         0.98909
C         20.84136        10.76914         0.60191
C         19.69055        10.01209         0.51118
C         20.89138        12.13168         0.20113
C         19.80986        12.78066        -0.35717
C         21.00240        14.96297        -0.60057
C         19.78944        14.22699        -0.52937
C         20.99666        16.33209        -0.75840
C         19.77781        17.06205        -0.75583
C         20.92994        19.25931        -1.19850
C         19.73944        18.49234        -0.89418
C         20.91955        20.62341        -1.27322
C         19.72875        21.38790        -1.03357
C         20.84111        23.58973        -1.37733
C         19.70542        22.77358        -0.98340
C         20.87208        24.92837        -1.21501
C         19.80021        25.65182        -0.44258
C         20.85612        27.89826        -0.94225
C         19.70626        27.13904        -0.75005
C         20.78949        29.30114        -1.08849
C         19.58002        29.96035        -1.00305
O         10.55933        23.19152         2.52125
O         12.81458        14.85960        -2.36747
O         18.87670        10.87969        -1.62501
O          7.78622        20.85818         2.15623
O          8.62559         6.03923        -2.09185
O          4.78304        17.59376         1.63805
O         14.97667        13.50154        -2.42244
O          5.71246        10.09118        -1.70059
O         10.22448        12.39166        -2.19760
O          7.33118        17.96655        -1.23973
O         15.82342         6.86283         2.74961
H         15.72751         5.98942         3.18890
O         13.19494        27.67955        -1.60509
H         13.81197        28.31119        -2.03322
O         10.31683        20.74062         2.66609
H          9.51321        20.93170         3.20188
O         15.63115        24.45703        -1.75832
H         15.63047        25.27907        -2.29364
O          8.94499         3.32076        -1.95109
H          8.89119         4.27016        -2.27067
O         11.09774         7.46703        -2.19005
H         10.25923         6.96309        -2.39777
O          1.01391        16.24235        -2.03833
H          0.97354        17.17628        -2.36574
O         16.45641        23.73019         1.77086
H         15.66608        24.20372         2.15512
O         17.92897        21.09289         1.38445
H         17.51955        21.79581         1.93906
O          3.55529        24.55347         2.29869
H          4.03527        23.71030         2.47195
O         14.35798         9.15640         1.96447
H         14.66549         8.42027         2.54783
O          7.36433        10.09079         1.60355
H          6.84829         9.32938         1.97939
O          7.73590         5.57804         1.44527
H          7.23378         4.86161         1.88926
O          4.63066        21.57551         2.07198
H          4.69055        20.71674         2.54261
O         17.45454        12.78419        -2.64950
H         17.77268        11.89708        -2.93431
O          4.92145         4.38515        -2.45000
H          5.76778         4.82144        -2.69216
O         20.19164        25.56177         0.97088
H         19.43171        25.86992         1.50866
O         14.04561        24.87258         2.20581
H         13.56356        24.11149         2.62848
O          5.07689        22.47601        -1.42706
H          5.20932        23.33680        -1.87501
O         13.03357        22.43841         2.43634
H         12.25476        22.14805         2.97218
O          0.93254        14.98431         1.37940
H          0.94165        14.08104         1.75961
O         13.08787        23.47820        -1.08034
H         13.84858        23.78003        -1.63869
O          0.94157         7.86328         1.50718
H          0.90619         8.82319         1.70594
O         17.02341         5.53525        -0.46637
H         17.78861         4.97398        -0.70944
O          7.84401        22.58592        -1.06897
H          7.88154        23.48800        -1.45197
O         17.78918        20.81405        -2.27403
H         18.37216        20.38977        -2.93780
O          8.64859        27.75125         2.81529
H          7.81170        28.18679         3.08342
O          6.09751         7.71284         1.74908
H          6.77443         7.03405         2.01272
O         16.05606        16.08716         1.31312
H         16.16336        16.96972         1.72872
O          1.10171        19.02125        -2.13137
H          1.87378        19.48455        -2.52083
H          1.26131         2.28115        -0.42048
H         -0.88859         3.48698        -0.12858
H         -0.95075         5.96010         0.03693
H         -0.97888         7.86639        -0.78219
H         -0.95924        10.26972        -1.12464
H         -0.98258        12.23482        -1.05555
H         -1.02732        14.64549        -0.75825
H         -0.89865        16.58515         0.37406
H         -0.84744        19.04009         0.31655
H         -0.91255        20.90048        -0.65411
H         -0.93612        23.31148        -0.23743
H         -0.91422        25.23699        -0.21520
H         -0.86064        27.69048        -0.04369
H          0.39979        29.79528         0.27183
H          3.67526         2.34759        -0.76886
H          2.56097        30.97475         0.61044
H          6.23882         2.38931        -1.01419
H          5.00118        30.92388         0.77756
H          8.69517         2.33921        -0.13022
H          7.43547        30.91970         0.66392
H         11.03772         2.48014         0.66844
H          9.87973        30.93511         0.60486
H         13.39779         2.63971         1.43554
H         12.32751        30.94642         0.54074
H         15.74346         2.79876         2.19246
H         14.76873        30.95011         0.06237
H         18.20572         2.78899         2.48436
H         17.10937        30.98658        -0.62033
H         20.34330         4.02759         2.47891
H         21.59149         6.13581         2.25434
H         21.69994         8.50629         1.59184
H         21.73728        10.35578         1.08409
H         21.80090        12.69800         0.44461
H         21.96225        14.42934        -0.58450
H         21.95509        16.85947        -0.85130
H         21.87757        18.73016        -1.36539
H         21.86584        21.14981        -1.46425
H         21.68320        23.09693        -1.88582
H         21.74232        25.49509        -1.57682
H         21.84165        27.41334        -0.96756
H         21.71651        29.86873        -1.25049
H         19.53152        31.05504        -1.09277
