         232
 CSIRO Nanostructure Databank - Neutral Graphene Oxide Data Set
C        -10.94736         0.65676         0.76086
C         -9.71665         1.37922         0.98473
C         -8.46583         0.59317         1.02698
C         -7.14063         1.36882         0.95219
C         -5.89521         0.65920         0.50147
C         -4.89110         1.40920        -0.25045
C         -3.80813         0.71601        -0.95950
C         -2.51348         1.43555        -1.24979
C         -1.24385         0.66449        -1.25310
C         -0.01912         1.44401        -1.71163
C          1.27855         0.76751        -1.32098
C          2.48140         1.48158        -1.29465
C          3.74525         0.80271        -1.19902
C          4.92473         1.54323        -0.90983
C          5.91052         0.88553        -0.19547
C          6.80131         1.67425         0.66636
C          8.09858         1.05476         1.18048
C          9.34754         1.82513         1.51040
C         10.40556         1.03084         2.13306
C         -9.67910         2.74045         1.18684
C         -8.44236         3.49048         1.17222
C         -7.22330         2.82005         0.84702
C         -6.07608         3.56206         0.46814
C         -4.98815         2.86847        -0.27427
C         -3.76613         3.67596        -0.67628
C         -2.51418         2.94478        -1.08238
C         -1.20787         3.60047        -0.75168
C          0.02852         2.85363        -1.10980
C          1.28623         3.61685        -1.28517
C          2.49096         2.95735        -1.33846
C          3.72686         3.72046        -1.31351
C          5.05467         2.98371        -1.35407
C          6.06851         3.73963        -0.53136
C          6.66699         3.13419         0.51078
C          8.60565         4.15858         0.93860
C          9.60107         3.16344         1.30553
C         -8.42105         4.88053         1.34540
C         -7.19293         5.60373         1.25754
C         -6.04496         4.93244         0.69051
C         -4.89933         5.81136         0.25733
C         -3.64396         5.06914        -0.18586
C         -2.49549         5.78956        -0.37134
C         -1.12678         5.12081        -0.51925
C         -0.04650         5.78606        -1.37860
C          1.23521         5.05920        -1.69181
C          2.48445         5.84441        -1.36873
C          3.72437         5.11427        -1.23946
C          4.94704         5.89189        -1.00518
C          6.29058         5.17450        -0.97187
C          7.41312         5.96380        -0.25620
C          8.65390         5.27711         0.16311
C         -7.08756         6.92582         1.71252
C         -5.74886         7.44736         2.15909
C         -4.59715         6.84729         1.34999
C         -3.35372         7.64836         1.13517
C         -2.49364         7.19665         0.03298
C         -1.68506         8.13324        -0.54163
C          0.01595         7.14853        -1.55612
C          1.19818         7.94483        -1.34185
C          2.45049         7.23004        -1.36400
C          3.71998         8.02563        -1.45973
C          4.93411         7.24952        -1.03800
C          6.24094         8.00898        -1.08365
C          7.34420         7.31477        -0.31983
C         -5.62801         8.94973         2.31196
C         -4.47873         9.64418         2.13333
C         -3.30126         9.08889         1.48361
C         -2.26258         9.88045         1.03245
C         -1.28963         9.36566         0.08749
C         -0.02309         9.89690        -0.18003
C          1.12754         9.25403        -0.78003
C          2.39263         9.92738        -0.52310
C          3.61573         9.36912        -0.77872
C          4.87011        10.04931        -0.51242
C          6.07304         9.45057        -0.67280
C        -10.95107        -0.68007         0.49986
C         -9.72922        -1.45803         0.41659
C         -8.47342        -0.81754         0.62178
C         -7.27586        -1.55359         0.47665
C         -5.95577        -0.86525         0.38474
C         -4.85432        -1.55964        -0.29753
C         -3.73319        -0.81763        -0.88619
C         -2.43412        -1.50850        -1.00974
C         -1.22440        -0.75684        -1.21032
C          0.01670        -1.49499        -1.33695
C          1.30370        -0.73345        -1.11994
C          2.52703        -1.04941        -1.99738
C          3.78451        -0.64971        -1.22198
C          4.81301        -1.36009        -0.66136
C          6.10259        -0.58550        -0.37727
C          7.14408        -1.16406         0.55135
C          8.20674        -0.42784         0.99039
C          9.49497        -1.14276         1.33704
C         10.42114        -0.31570         2.18261
C         -9.76169        -2.82732         0.15109
C         -8.58955        -3.63350         0.16697
C         -7.31339        -2.95615         0.30706
C         -6.03525        -3.64559         0.17148
C         -4.82118        -2.94944        -0.25841
C         -3.60349        -3.65617        -0.53679
C         -2.40128        -2.92254        -0.90088
C         -1.19346        -3.62886        -1.20589
C          0.02253        -2.90576        -1.42172
C          1.22657        -3.78030        -1.91153
C          2.74774        -3.43560        -1.96687
C          3.67222        -3.68745        -0.80515
C          4.96436        -2.87884        -0.66462
C          5.78802        -3.35267         0.54670
C          6.98619        -2.57294         0.97559
C          8.16055        -3.27049         1.56558
C          9.29607        -2.56009         1.81446
C         -8.77123        -5.02159        -0.11545
C         -7.79362        -6.01345         0.17288
C         -5.90239        -4.96427         0.50647
C         -4.72199        -5.76527         0.22200
C         -3.54814        -5.07367        -0.34067
C         -2.46485        -5.83357        -0.77994
C         -1.27860        -5.12162        -1.29123
C          0.00926        -5.92863        -1.29799
C          1.20290        -5.06344        -0.98147
C          2.50505        -5.84137        -0.91036
C          3.64848        -5.00486        -0.45279
C          4.69325        -5.66716         0.36452
C          5.79374        -4.82081         0.88350
C          7.03799        -5.47402         1.36450
C          8.10736        -4.70904         1.75539
C         -7.54957        -7.21722        -0.44992
C         -6.21070        -7.93806        -0.50429
C         -4.90974        -7.23989        -0.06888
C         -3.70012        -7.97018        -0.53204
C         -2.51125        -7.28000        -0.77447
C         -1.27102        -8.04976        -0.98559
C          0.01900        -7.34654        -0.87916
C          1.17456        -8.00856        -0.53516
C          2.48250        -7.31015        -0.58316
C          3.63352        -7.91340         0.09905
C          4.93517        -7.15139         0.11198
C          5.96247        -7.69773         1.07999
C          6.98189        -6.90825         1.55335
C         -6.18196        -9.32859         0.10343
C         -5.01094        -9.99434         0.15355
C         -3.73834        -9.39667        -0.26745
C         -2.57412       -10.12171        -0.16355
C         -1.28673        -9.55929        -0.57114
C         -0.04679       -10.09837        -0.02584
C          1.14988        -9.38405        -0.04645
C          2.33907        -9.94636         0.50261
C          3.54813        -9.21762         0.59830
C          4.72069        -9.80896         1.22816
C          5.85342        -9.08924         1.45520
O          1.73376        -1.04254         0.23536
H          1.06606        -0.68901         0.86074
O          6.75617         5.17284        -2.32306
O          6.93387         1.26348         2.06797
O         10.20652        -1.28234         0.05060
H          9.57988        -1.66536        -0.59995
O          4.64798        -5.22053         1.74939
O          5.76066        -3.22991        -1.83899
H          5.13987        -3.26191        -2.61307
O          6.79181        -0.68931        -1.69487
H          6.65891        -1.61749        -2.01764
O         -7.65778         0.86555         2.21700
O          3.91130         8.30794        -2.89057
H          4.89247         8.33994        -3.04587
O         -0.04515         1.53585        -3.15288
H         -0.93900         1.86699        -3.40736
O         -0.71628        -5.70083        -2.51852
O         -5.37243         6.59441        -0.87840
H         -5.52401         5.96902        -1.62026
O         -2.58427         2.37224        -2.41756
O          1.24589         4.98481        -3.18171
H          1.66172         5.80673        -3.52283
O          7.33856         3.87809         1.48995
O          0.90675        -4.08083        -3.26069
H          1.67537        -3.81520        -3.82192
O          2.48642        -1.12610        -3.20004
O         -5.38761        -0.20903         1.58388
O         -5.62360         6.93796         3.52855
H         -4.66022         6.76012         3.66031
O          5.48204         2.92294        -2.73275
H          6.01306         3.76473        -2.88904
O          6.63579         7.95513        -2.50122
H          6.78047         6.97717        -2.68214
O         -0.56185         5.31185         0.81199
H         -0.19952         4.43708         1.10045
O         -0.47732         2.84991         0.28942
O          0.96669        -4.59450         0.37190
H          1.78608        -4.18936         0.73171
O         -4.60190        -6.79626         1.28188
O         -5.97297        -8.11355        -1.93788
H         -6.59067        -8.79585        -2.27408
O          5.50869        -7.24530        -1.22715
H          4.76134        -7.16693        -1.86899
O          2.81714        -6.77045        -1.98050
O         -6.89723        -5.63339         1.20332
O         -3.45155         6.60745         2.20438
O         -1.27238        -9.11086        -1.96946
O          5.70805        -2.58237         1.77020
O         -4.21128        -0.11060        -2.10945
O          3.30293        -3.43252        -3.06311
O         -4.85004         3.48819        -1.63428
O         -1.15681         7.86740        -1.79687
H         11.22906        -0.83605         2.71825
H         11.19702         1.59548         2.65099
H         10.63112         3.51173         1.49239
H          9.60896         5.63163        -0.25484
H          8.16035         7.93260         0.08800
H          6.99126        10.02514        -0.47399
H          4.82290        11.09531        -0.16880
H          2.34951        10.92499        -0.05642
H          0.21377        10.84521         0.33266
H         -2.21023        10.93639         1.34077
H         -4.45767        10.71896         2.37321
H         -6.49461         9.46322         2.75637
H         -7.99046         7.43549         2.08412
H         -9.33740         5.40910         1.64638
H        -10.62200         3.30488         1.24530
H        -11.89315         1.21694         0.79643
H        -11.90351        -1.20407         0.33330
H        -10.73401        -3.31731        -0.00637
H         -9.71199        -5.32373        -0.60024
H         -8.26108        -7.53855        -1.22725
H         -7.11749        -9.80320         0.43360
H         -4.97756       -11.02679         0.53423
H         -2.59447       -11.13152         0.27381
H         -0.08874       -11.05906         0.50939
H          2.30609       -10.97759         0.88275
H          4.65432       -10.85466         1.56147
H          6.69504        -9.54640         1.99736
H          7.77194        -7.37016         2.16673
H          9.00351        -5.20015         2.16435
H         10.18345        -3.08393         2.20414
