         334
 CSIRO Nanostructure Databank - Neutral Graphene Oxide Data Set
C         30.48699        57.01888        -0.57559
C         30.43872        58.42847        -0.76054
C         29.26034        59.08634        -1.20911
C         30.41185        61.22183        -1.13155
C         29.25707        60.45452        -1.40021
C         32.79182        52.87399         0.94919
C         32.73481        54.36797         0.98548
C         31.67066        54.87963        -0.02049
C         32.80447        57.15483         0.14221
C         31.63954        56.38952        -0.11540
C         32.81383        58.53909        -0.10328
C         31.61177        59.20181        -0.51371
C         32.77654        61.45238        -0.29935
C         31.58012        60.61392        -0.69134
C         35.19756        48.58051         0.71069
C         35.17550        50.00833         0.76106
C         33.97783        50.73760         0.79840
C         35.24010        52.87079         0.67843
C         33.97799        52.16514         0.82298
C         35.23800        54.32766         0.58988
C         34.06201        55.03050         0.71055
C         35.30076        57.17516         0.22575
C         34.04190        56.53776         0.75116
C         35.27566        58.54671        -0.11114
C         34.06701        59.26530        -0.13574
C         35.27548        61.37720        -0.46922
C         34.08420        60.69416        -0.35456
C         37.71075        44.34322         0.17505
C         37.63143        45.77277         0.34861
C         36.45101        46.43504         0.56671
C         37.62985        48.60861         0.87232
C         36.40102        47.88105         0.70235
C         37.63907        49.99824         0.90407
C         36.42289        50.72571         0.76723
C         37.71350        52.81588         0.22507
C         36.42660        52.14861         0.64076
C         37.72037        54.31559         0.42985
C         36.51777        55.02613         0.45469
C         37.75233        57.16407         0.09193
C         36.51567        56.45978         0.26521
C         37.78367        58.51071        -0.26187
C         36.51305        59.19430        -0.68404
C         37.74721        61.35681        -0.50521
C         36.54685        60.69422        -0.50024
C         40.20659        40.06206         0.12440
C         40.11718        41.50483         0.53006
C         38.96501        42.21431        -0.21379
C         40.17236        44.39250         0.27778
C         38.91228        43.68403         0.11084
C         40.17657        45.77683         0.37025
C         38.90526        46.56854         0.11547
C         40.15897        48.62852         0.88740
C         38.89255        47.81952         1.05216
C         40.16460        49.98186         1.08430
C         38.88525        50.74608         1.32081
C         40.17546        52.82862         0.69362
C         38.94764        52.14356         0.76072
C         40.17990        54.26964         0.42232
C         38.98416        54.98397         0.39194
C         40.23046        57.11288        -0.13446
C         39.02749        56.48834         0.51992
C         40.25270        58.49250        -0.37381
C         39.01459        59.22284        -0.36737
C         40.23050        61.32861        -0.60236
C         39.01877        60.64902        -0.52135
C         42.92943        36.14341        -1.36739
C         42.56656        37.09406        -0.20356
C         41.32295        37.96308        -0.54121
C         42.64850        40.08871         0.13613
C         41.37774        39.39905        -0.04466
C         42.65883        41.51384         0.30601
C         41.42622        42.24255         0.38349
C         42.65001        44.37532         0.44334
C         41.42394        43.65691         0.38029
C         42.66588        45.78837         0.37259
C         41.40769        46.51530         0.42334
C         42.59117        48.69433         0.36392
C         41.37924        47.90708         0.59834
C         42.68140        50.07691         0.81666
C         41.44044        50.73813         1.36478
C         42.65274        52.96902         1.16598
C         41.39436        52.18407         0.95108
C         42.65376        54.31395         0.49250
C         41.44848        54.93893         0.24048
C         42.76649        57.05622        -0.49449
C         41.41902        56.30526        -0.32046
C         42.73985        58.53143        -0.54684
C         41.49906        59.20206        -0.56261
C         42.70670        61.33151        -0.57701
C         41.48493        60.63700        -0.60309
C         45.32239        33.14899        -1.28850
C         44.13340        33.88373        -1.43835
C         45.21795        35.80437        -0.44471
C         44.07809        35.21955        -1.01744
C         45.15500        37.18118         0.08241
C         43.83052        37.88718         0.20080
C         45.09777        40.05151         0.33584
C         43.85619        39.37141         0.19446
C         45.11497        41.48077         0.40762
C         43.89564        42.19354         0.41409
C         45.19364        44.35525         0.48223
C         43.91004        43.64072         0.83270
C         45.16462        45.77305         0.35745
C         43.90992        46.47234         0.33677
C         45.16818        48.65585         0.39194
C         43.92446        47.92051         0.16578
C         45.15559        50.05781         0.57455
C         43.89087        50.76757         0.77807
C         45.12239        52.91159         0.85962
C         43.92233        52.19494         0.90362
C         45.12606        54.31659         0.68676
C         43.92100        55.00248         0.37709
C         45.18607        57.09529        -0.03187
C         43.95981        56.37300         0.00005
C         45.17721        58.43782        -0.53686
C         43.97598        59.23238        -0.61915
C         45.13196        61.51459        -0.39217
C         43.96829        60.68733        -0.59433
C         46.48093        33.75494        -0.82002
C         47.65494        35.83712        -0.10408
C         46.46451        35.11842        -0.41948
C         47.64822        37.24340         0.06712
C         46.40396        37.94922         0.11632
C         47.57658        40.05028         0.54411
C         46.35692        39.33982         0.32860
C         47.48916        41.42140         0.94132
C         46.35375        42.19043         0.61240
C         47.61369        44.33515         0.02748
C         46.40424        43.63991         0.40385
C         47.61833        45.77600         0.05380
C         46.38626        46.49066         0.23037
C         47.59265        48.66083         0.26784
C         46.38651        47.93514         0.31047
C         47.60218        50.06022         0.52238
C         46.38074        50.74463         0.71166
C         47.65552        52.92372         0.72484
C         46.41043        52.18485         1.15685
C         47.66737        54.29859         0.66637
C         46.40407        55.09046         0.91953
C         47.64991        57.10712         0.04052
C         46.42208        56.45007         0.25524
C         47.65124        58.42950        -0.49436
C         46.43257        58.96151        -0.89944
C         47.70326        61.53438        -0.33126
C         46.42870        61.13050        -0.76555
C         48.85282        37.99874         0.11834
C         50.05079        40.12502        -0.01079
C         48.83888        39.39568         0.25747
C         50.12079        41.47034        -0.42332
C         48.90202        42.24695        -0.83287
C         50.05521        44.33420        -0.42080
C         48.84259        43.65934        -0.32923
C         50.04815        45.79690        -0.49169
C         48.80506        46.50292        -0.23637
C         50.14320        48.70037         0.02920
C         48.81432        47.96133        -0.16095
C         50.10105        49.97152         0.84603
C         48.85239        50.77599         0.62462
C         50.14768        52.87006         0.73211
C         48.88890        52.17131         0.67276
C         50.14408        54.30639         0.64072
C         48.91544        55.01074         0.52485
C         50.13012        57.09651         0.08069
C         48.91074        56.41078         0.24392
C         50.17567        58.51034        -0.38966
C         48.88798        59.24237        -0.69631
C         50.12134        61.38501        -0.36382
C         48.89025        60.74327        -0.51403
C         51.32535        42.18501        -0.46893
C         52.53293        44.30635        -0.32931
C         51.33642        43.62200        -0.49526
C         52.55787        45.70945         0.20756
C         51.40503        46.54611        -0.30345
C         52.58883        48.59107         0.44357
C         51.39126        47.93875         0.12991
C         52.60703        50.01377         0.65187
C         51.39130        50.74352         0.74138
C         52.64273        52.87607         1.12772
C         51.36405        52.14743         0.81464
C         52.63763        54.32549         0.71264
C         51.37830        55.03188         0.61450
C         52.58834        57.19566         0.43268
C         51.34016        56.42525         0.37140
C         52.60925        58.62332         0.05281
C         51.41434        59.28943        -0.16963
C         52.60034        61.42760        -0.16094
C         51.38922        60.71873        -0.27626
C         53.83869        46.47948         0.05876
C         55.06035        48.60162         0.21190
C         53.84942        47.85392         0.25881
C         55.09829        50.00302         0.35559
C         53.86043        50.73462         0.59392
C         55.11538        52.84998         0.56802
C         53.88595        52.12163         0.71326
C         55.10022        54.24187         0.48206
C         53.85642        54.96795         0.52974
C         55.10759        57.13754        -0.06061
C         53.87853        56.44569         0.48008
C         55.09087        58.63356         0.15436
C         53.85226        59.32862         0.07899
C         55.09016        61.44024         0.06957
C         53.83934        60.75614        -0.01052
C         56.31744        50.70435         0.29488
C         57.58891        52.80419         0.47134
C         56.38028        52.12202         0.43510
C         57.64016        54.27246         0.80870
C         56.38676        54.97344         0.15924
C         57.59834        57.22224         0.37500
C         56.32134        56.45108         0.60023
C         57.57257        58.57647         0.24490
C         56.30851        59.32487         0.19763
C         57.58957        61.53121         0.32772
C         56.29014        60.75786         0.19335
C         58.79888        55.04209         0.26820
C         60.04014        57.18752        -0.09098
C         58.93340        56.48791         0.65529
C         60.00374        58.52842        -0.29885
C         58.89168        59.33996         0.34156
C         59.69186        61.27350        -1.02778
C         58.76138        60.74193        -0.19897
C         60.99677        59.20708        -1.11017
C         60.84205        60.51043        -1.46159
O         46.45894        60.08723        -1.71606
O         53.34525        57.02520         1.71041
O         42.08322        56.40971        -1.61802
O         44.43612        37.30948         1.40604
O         38.97384        46.96023        -1.21614
O         49.50317        48.69576        -1.26011
O         48.10009        41.82990        -1.65660
O         43.16140        48.44549        -0.96597
O         49.70912        58.71130        -1.78542
O         50.89416        46.28574        -1.61275
O         39.75120        41.55434         1.94638
H         40.38698        40.99528         2.44023
O         52.28670        45.58681         1.66080
H         53.08920        45.21005         2.07964
O         38.91107        47.27932         2.40134
H         38.84674        48.03279         3.02583
O         41.57217        50.73702         2.84671
H         40.65589        50.88080         3.19482
O         55.09109        56.94812        -1.50435
H         55.72684        57.58042        -1.90149
O         41.04536        37.99207        -1.94528
H         41.86897        38.22975        -2.42518
O         38.78006        50.89641         2.80584
H         38.03094        51.50571         2.98504
O         42.17844        36.27338         0.91200
H         42.96504        36.20501         1.50668
O         33.97866        56.90036         2.19868
H         34.83814        56.64361         2.59778
O         32.84377        62.65431        -1.07167
H         32.95286        62.40992        -2.01308
O         43.87363        43.61486         2.31923
H         43.00965        43.22921         2.58023
O         32.27753        54.75769         2.31396
H         32.67444        55.64277         2.51653
O         42.68259        53.24449         2.62164
H         42.48279        52.37593         3.05782
O         56.07526        56.46021         2.02448
H         55.71112        57.33742         2.27001
O         57.48221        62.81220        -0.29121
H         57.30117        62.68207        -1.24421
O         43.39975        36.95636        -2.46523
H         43.63925        36.36156        -3.20574
O         50.03041        49.49556         2.23869
H         50.07498        50.28176         2.82422
O         46.41283        55.32819         2.38475
H         45.58359        55.80321         2.60859
O         57.53044        54.39957         2.24744
H         58.04475        53.67157         2.65334
O         59.14274        56.63060         2.09035
H         58.42850        56.09233         2.51710
O         37.76291        52.62982        -1.24173
H         38.60366        53.02154        -1.56187
O         31.99284        54.33565        -1.30499
H         31.44434        54.78380        -1.98064
O         39.13109        42.06236        -1.63033
H         39.65641        42.81572        -1.96981
O         56.62108        54.86743        -1.25398
H         55.86865        55.30725        -1.71941
O         48.49795        41.99787         1.64607
H         49.21119        41.34466         1.80392
O         59.16853        59.45682         1.76590
H         59.27163        58.53307         2.11156
O         46.50189        52.16130         2.62649
H         46.50384        53.10189         2.91996
O         39.15461        56.74639         1.97585
H         39.17335        57.72044         2.09385
O         52.69072        52.91596         2.61200
H         53.43432        53.50691         2.86091
O         36.41368        58.97704        -2.14018
H         35.58264        59.40396        -2.43864
H         29.58825        56.42051        -0.79076
H         28.35444        58.49395        -1.40219
H         30.38914        62.31286        -1.26387
H         28.34517        60.95882        -1.74960
H         31.84370        52.32512         1.06018
H         30.65804        54.50208         0.30546
H         32.62029        61.77786         0.76972
H         34.24399        48.03588         0.64441
H         33.01497        50.20548         0.82177
H         35.25992        62.47663        -0.52185
H         36.77376        43.76799         0.09785
H         35.50218        45.87726         0.61589
H         37.76628        62.45780        -0.48696
H         39.25727        39.52380        -0.02146
H         38.00405        41.71409         0.06945
H         40.23419        62.42755        -0.66039
H         42.02756        35.55807        -1.68684
H         40.44227        37.46425        -0.06355
H         42.68335        62.43157        -0.55042
H         45.34660        32.09497        -1.59919
H         43.24742        33.41251        -1.88789
H         44.97770        62.48751         0.09955
H         47.42455        33.19213        -0.78336
H         48.61716        35.30428        -0.11164
H         47.81309        62.49835         0.18942
H         49.80946        37.48895        -0.06853
H         50.99638        39.56093         0.05063
H         50.12331        62.48275        -0.27825
H         52.27661        41.65911        -0.29001
H         53.46993        43.72731        -0.30636
H         52.58789        62.52696        -0.20176
H         54.78012        45.94449        -0.13638
H         56.00425        48.06142         0.04072
H         55.10580        62.53984         0.03019
H         57.25335        50.14090         0.16174
H         58.52858        52.25208         0.31586
H         57.76822        61.71381         1.42341
H         59.12781        54.77249        -0.74935
H         60.85024        56.58179        -0.52592
H         59.58955        62.31462        -1.36888
H         61.86202        58.62814        -1.46602
H         61.59035        61.00680        -2.09539
