         640
 CSIRO Nanostructure Databank - Neutral Graphene Oxide Data Set
C         23.11205        27.63942        -1.45133
C         23.12436        29.00468        -1.23491
C         23.10742        31.81571        -0.45140
C         23.09772        33.15534        -0.10392
C         23.08854        35.97148         0.64259
C         23.05967        37.34424         0.89270
C         22.97299        40.26887         0.77931
C         22.96663        41.63278         0.55136
C         23.04153        44.51725        -0.00952
C         23.03515        45.85833        -0.42656
C         25.42683        24.72477        -1.33610
C         24.28248        25.46290        -1.49332
C         25.51058        27.52522        -0.93221
C         24.29029        26.87480        -1.29063
C         25.52783        28.94915        -0.76377
C         24.31758        29.68269        -0.87915
C         25.54851        31.80623        -0.43584
C         24.31793        31.10746        -0.60311
C         25.52502        33.20639        -0.18725
C         24.30117        33.87973         0.04051
C         25.51732        36.02786         0.48861
C         24.29023        35.29910         0.38152
C         25.49312        37.42550         0.77929
C         24.23383        38.10548         0.91206
C         25.40778        40.28584         0.82121
C         24.19260        39.56152         0.89101
C         25.41304        41.63971         0.44856
C         24.17278        42.33092         0.30333
C         25.38199        44.17682        -0.88121
C         24.16999        43.71115        -0.10706
C         25.42120        45.69045        -1.12218
C         24.19032        46.47902        -0.92733
C         25.43538        48.57580        -1.19724
C         24.23239        47.87493        -1.13587
C         27.91442        23.16228        -0.99817
C         27.84242        24.55530        -0.77849
C         26.66183        25.33447        -0.94309
C         27.92306        27.43676        -0.41445
C         26.69334        26.75677        -0.75020
C         27.94231        28.87400        -0.26950
C         26.75790        29.62448        -0.45860
C         28.00512        31.71854        -0.10079
C         26.78995        31.06359        -0.37305
C         28.09207        33.18635        -0.16114
C         26.77867        33.97557        -0.19376
C         27.97042        36.05630         0.51495
C         26.77519        35.37704         0.28855
C         27.93943        37.44223         0.88099
C         26.71862        38.13096         0.93549
C         27.91923        40.33649         0.98749
C         26.65162        39.60088         1.32909
C         27.92526        41.62209         0.49699
C         26.67744        42.34096         0.20087
C         27.98794        44.27643        -0.76467
C         26.68736        43.60533        -0.33765
C         27.97474        45.79205        -0.69311
C         26.73615        46.47606        -1.08496
C         27.90695        48.67110        -0.85708
C         26.67982        47.94531        -1.02457
C         27.93241        50.08989        -0.96009
C         30.38333        23.07587        -0.88212
C         29.10759        22.44242        -0.95897
C         30.33195        24.56893        -0.83180
C         29.08961        25.19647        -0.22263
C         30.33994        27.37537         0.02590
C         29.11024        26.70767        -0.28281
C         30.31725        28.77864         0.36003
C         29.15449        29.53158         0.14181
C         30.34957        31.68050         0.61441
C         29.18282        30.98275         0.24645
C         30.38609        33.11765         0.71100
C         29.28816        33.86451         0.35687
C         30.27711        35.91776         1.41194
C         29.32970        35.37781         0.33384
C         30.36470        37.43456         1.26839
C         29.20121        38.14091         1.13486
C         30.42859        40.32099         0.97690
C         29.17757        39.63587         1.43229
C         30.41546        41.64488         0.55530
C         29.17717        42.33615         0.30508
C         30.39579        44.43750        -0.01965
C         29.19862        43.67936        -0.09393
C         30.39420        45.86077        -0.20657
C         29.13360        46.52969        -0.49964
C         30.34667        48.71109        -0.48531
C         29.13047        47.97932        -0.61294
C         30.34431        50.12990        -0.62378
C         29.11093        50.79148        -0.86257
C         32.83687        20.28247        -0.51975
C         31.69398        20.93923        -0.83388
C         32.89981        23.09680        -0.87586
C         31.59897        22.38324        -0.84491
C         32.89982        24.62279        -0.82342
C         31.60152        25.35834        -0.72191
C         32.80631        27.25685         0.42461
C         31.55122        26.66524        -0.04384
C         32.82991        28.70104         0.87381
C         31.52293        29.43398         0.90179
C         32.87860        31.63560         0.92705
C         31.56027        30.94176         1.02108
C         32.89386        33.03424         0.97520
C         31.59458        33.68543         1.44671
C         32.88842        35.93643         1.05631
C         31.66110        35.23203         1.54956
C         32.91035        37.36670         1.06410
C         31.67926        38.10002         1.40371
C         32.92537        40.24944         0.71232
C         31.69601        39.63322         1.19103
C         32.89524        41.64650         0.39592
C         31.65726        42.34598         0.36986
C         32.86708        44.45985         0.19147
C         31.64468        43.75351         0.20151
C         32.85902        45.95125         0.38218
C         31.57605        46.60641        -0.07480
C         32.80265        48.75996        -0.07543
C         31.59152        48.02414        -0.22549
C         32.78029        50.19045        -0.15712
C         31.57240        50.87131        -0.48719
C         32.79926        52.97512        -0.48519
C         31.61888        52.27976        -0.63874
C         35.38878        18.86397         0.14653
C         35.34466        20.21090        -0.09670
C         34.05328        20.99207         0.02399
C         35.35251        23.10117        -0.48612
C         34.14851        22.40641        -0.50566
C         35.35069        24.56527        -0.43417
C         34.12606        25.28104        -0.35610
C         35.27547        27.33116         0.30537
C         34.08272        26.62024         0.06356
C         35.29535        28.75553         0.56381
C         34.08904        29.46589         0.73543
C         35.33425        31.60051         0.65570
C         34.08955        30.89160         0.76395
C         35.33419        33.03505         0.64948
C         34.11062        33.75174         0.80542
C         35.30896        35.91615         0.65076
C         34.11810        35.21015         0.83987
C         35.33901        37.34471         0.68302
C         34.11444        38.07091         0.86066
C         35.34955        40.17189         0.40269
C         34.13073        39.50842         0.68610
C         35.35774        41.59058        -0.09955
C         34.09811        42.35323         0.17491
C         35.35111        44.49968         0.16359
C         34.09364        43.76560         0.13993
C         35.36125        45.90892         0.14344
C         34.08484        46.61282        -0.25228
C         35.24523        48.77316         0.35135
C         34.08329        48.08981         0.05385
C         35.09609        50.22039         0.79223
C         33.97580        50.93115         0.07141
C         35.26772        53.05688        -0.01165
C         34.00077        52.31737        -0.10558
C         35.31553        54.41042        -0.39667
C         37.84619        18.81238         0.38852
C         36.62415        18.15360         0.22030
C         37.74172        20.32392         0.61159
C         36.67496        20.90413        -0.34475
C         37.81860        23.11000        -0.21233
C         36.61324        22.41489        -0.27562
C         37.86133        24.58818        -0.53753
C         36.54875        25.26404        -0.20154
C         37.71323        27.32877         0.41957
C         36.49312        26.62843         0.15609
C         37.76988        28.72410         0.42994
C         36.54279        29.46107         0.48410
C         37.81914        31.60487         0.44949
C         36.55858        30.88603         0.52533
C         37.80319        33.05084         0.48147
C         36.58348        33.73240         0.52399
C         37.84094        35.92765         0.51350
C         36.55530        35.20069         0.19324
C         37.82666        37.33954         0.55946
C         36.56784        38.04952         0.57492
C         37.81286        40.20463         0.48086
C         36.57409        39.47523         0.47804
C         37.80344        41.64028         0.44813
C         36.59367        42.35261         0.28399
C         37.79360        44.49460         0.44553
C         36.57349        43.76842         0.30641
C         37.78182        45.91919         0.52618
C         36.54648        46.63561         0.37673
C         37.70482        48.77806         0.78152
C         36.53141        48.08988         0.49337
C         37.72241        50.24659         0.98754
C         36.42318        51.00007         0.83924
C         37.73008        53.05631         0.16176
C         36.46762        52.39936         0.34357
C         37.73496        54.43396        -0.22281
C         36.53079        55.08712        -0.47648
C         40.32655        16.01501         0.23231
C         39.13638        16.70280         0.30280
C         40.39937        18.80766         0.76781
C         39.08336        18.12026         0.42053
C         40.39460        20.32217         0.55125
C         39.07275        21.06153         0.49454
C         40.30449        23.15204        -0.03124
C         39.06331        22.45953         0.02727
C         40.34808        24.59827         0.04538
C         39.05460        25.24666         0.11222
C         40.64853        27.60558         0.59816
C         38.84966        26.48644         0.65945
C         40.35538        28.80897         0.03651
C         38.99549        29.45587        -0.08855
C         40.26956        31.63241         0.08908
C         39.02220        30.92516         0.24932
C         40.26508        33.06556         0.30666
C         39.07225        33.76503         0.44747
C         40.28346        35.95681         0.55653
C         39.06923        35.22531         0.53431
C         40.28595        37.37303         0.54426
C         39.04874        38.07063         0.58289
C         40.26723        40.22071         0.72335
C         39.04553        39.50920         0.60037
C         40.26021        41.65602         0.72846
C         39.02839        42.35815         0.56582
C         40.24934        44.50050         0.52954
C         39.02582        43.78455         0.52923
C         40.23275        45.92691         0.55720
C         39.00714        46.61538         0.66528
C         40.24468        48.79923         0.55976
C         39.01489        48.06642         1.06521
C         40.24280        50.16948         0.43332
C         39.06742        50.99225         0.91886
C         40.21526        53.03397         0.08230
C         38.96855        52.34668         0.25106
C         40.23847        54.42093        -0.04614
C         39.02398        55.17828        -0.48567
C         40.19723        57.29756         0.08341
C         39.02615        56.61453        -0.01220
C         42.76231        15.99503        -0.20416
C         41.58042        16.70703         0.09423
C         42.79399        18.82340        -0.13800
C         41.60616        18.12003         0.16407
C         42.78243        20.27541        -0.28166
C         41.58531        21.01013        -0.01292
C         42.67696        23.15936        -0.68713
C         41.51787        22.40970        -0.15938
C         42.77440        24.61718        -0.47060
C         41.59212        25.30635        -0.01283
C         42.86960        27.41609        -0.26101
C         41.73347        26.74292         0.14159
C         42.82585        28.91697        -0.14686
C         41.49132        29.52013        -0.66062
C         42.66421        31.76453        -0.62864
C         41.44447        30.99451        -0.31252
C         42.77456        33.14443        -0.17672
C         41.57466        33.74972         0.41116
C         42.80222        35.98989         0.18685
C         41.58137        35.26363         0.57734
C         42.76804        37.43498         0.28318
C         41.52891        38.10296         0.52033
C         42.74462        40.22659         0.80429
C         41.52462        39.51703         0.69832
C         42.71215        41.66753         1.26350
C         41.46602        42.38060         0.83413
C         42.72382        44.47238         0.52218
C         41.49374        43.78402         0.63745
C         42.68969        45.87850        -0.00672
C         41.46697        46.65434         0.42278
C         42.68952        48.75581         0.03770
C         41.46446        48.04719         0.35064
C         42.66527        50.13432        -0.12254
C         41.45689        50.88224         0.09753
C         42.71127        53.01155        -0.16709
C         41.46677        52.28854         0.05295
C         42.72754        54.43116        -0.11676
C         41.48837        55.15709         0.32718
C         42.65734        57.28836        -0.25305
C         41.45890        56.61981        -0.01962
C         43.94804        16.68416        -0.42489
C         45.26809        18.76334        -0.78961
C         43.97768        18.08588        -0.40816
C         45.20941        20.26788        -0.74405
C         43.98150        20.94321        -0.66993
C         45.19946        23.15089        -1.09744
C         43.94361        22.39102        -0.96983
C         45.20188        24.54864        -1.09163
C         43.97972        25.27948        -0.77056
C         45.22680        27.45022        -0.87658
C         44.05360        26.72404        -0.66710
C         45.23055        28.89534        -0.83684
C         44.03671        29.58456        -0.72191
C         45.25528        31.78225        -0.77877
C         43.99424        31.03868        -0.89087
C         45.23114        33.17602        -0.58611
C         43.98030        33.85012        -0.27833
C         45.20826        36.02547        -0.40209
C         43.96576        35.28847        -0.10479
C         45.20783        37.53220        -0.18745
C         43.96025        38.18162         0.22967
C         45.23129        40.25580         0.68114
C         43.98100        39.56557         0.58555
C         45.24553        41.67317         1.22424
C         43.97530        42.42211         0.96380
C         45.22067        44.52692         0.51639
C         43.97220        43.78355         0.67097
C         45.21602        45.91596         0.27672
C         43.97680        46.64084         0.15703
C         45.19777        48.75195        -0.13600
C         43.95326        48.02033        -0.00306
C         45.18394        50.13754        -0.37272
C         43.87854        50.83197        -0.68056
C         45.14114        53.01379        -0.58413
C         43.91229        52.31325        -0.41492
C         45.14390        54.44667        -0.58217
C         43.91139        55.16490        -0.36045
C         43.86255        56.58993        -0.38409
C         47.63833        18.98939        -0.12586
C         46.49031        18.26978        -0.04922
C         47.66748        20.28873        -0.76160
C         46.44961        20.94910        -0.96660
C         47.76442        23.17155        -1.22389
C         46.41083        22.38197        -1.33420
C         47.67424        24.61655        -0.98891
C         46.46114        25.27477        -1.12189
C         47.71963        27.48712        -0.91749
C         46.46676        26.76542        -1.36773
C         47.72038        28.88775        -0.86772
C         46.47632        29.63798        -0.94691
C         47.76443        31.78721        -1.05139
C         46.47213        31.03314        -0.86925
C         47.72728        33.20955        -0.54292
C         46.48950        33.90053        -0.48188
C         47.70116        36.02985        -0.17205
C         46.49445        35.30930        -0.31835
C         47.69341        37.46596         0.03123
C         46.48509        38.19289         0.10280
C         47.71393        40.24234         0.65402
C         46.46228        39.57052         0.47924
C         47.71646        41.67872         0.96837
C         46.46996        42.43974         0.83508
C         47.72416        44.53974         0.45831
C         46.47133        43.81547         0.63356
C         47.70007        45.94625         0.19800
C         46.45896        46.63710         0.14739
C         47.66131        48.74675        -0.33822
C         46.44077        48.04641        -0.08056
C         47.61880        50.13980        -0.61472
C         46.39870        50.84342        -0.58084
C         47.58931        53.01502        -0.86072
C         46.37505        52.29946        -0.72954
C         47.55225        54.43376        -0.91646
C         46.36737        55.12647        -0.78556
C         50.21137        20.27954        -0.60564
C         48.98414        20.95791        -1.15442
C         49.94824        23.12782        -0.05237
C         48.90781        22.41701        -0.78873
C         50.03412        24.59891        -0.21872
C         48.89655        25.31790        -0.63998
C         50.11491        27.43132        -0.32131
C         48.90745        26.74873        -0.63848
C         50.13689        28.86103        -0.34063
C         48.94664        29.59770        -0.60320
C         50.17221        31.71191        -0.33754
C         48.97526        31.01673        -0.58804
C         50.19272        33.16255        -0.26086
C         48.94015        33.89396        -0.32600
C         50.17098        36.01422         0.04609
C         48.94384        35.31583        -0.13433
C         50.16968        37.43661         0.17637
C         48.93255        38.15344         0.20895
C         50.18527        40.28478         0.41965
C         48.93142        39.56280         0.45856
C         50.22524        41.68268         0.48743
C         49.01959        42.43979         0.83573
C         50.19436        44.54942         0.29005
C         48.95919        43.86985         0.51540
C         50.18122        45.95280         0.04469
C         48.93578        46.65181        -0.01852
C         50.15169        48.74019        -0.56706
C         48.91091        48.04067        -0.31932
C         50.14383        50.13846        -0.80671
C         48.84902        50.82748        -1.14794
C         50.07002        52.98150        -0.84784
C         48.85527        52.31467        -0.90492
C         51.20904        20.90992         0.03036
C         52.44286        23.11745         0.53565
C         51.17509        22.35641         0.37927
C         52.45440        24.53482         0.42109
C         51.25307        25.27070         0.08008
C         52.53268        27.39079         0.18154
C         51.29726        26.69173        -0.01518
C         52.56691        28.81605         0.08792
C         51.36225        29.55439        -0.13117
C         52.62434        31.66802        -0.01414
C         51.38425        30.97689        -0.14802
C         52.64141        33.10371         0.03344
C         51.39731        33.83741        -0.04029
C         52.62560        35.95278         0.30911
C         51.42900        35.28887         0.09601
C         52.67814        37.43304         0.57589
C         51.39802        38.15298         0.24434
C         52.63969        40.27868         0.05808
C         51.41033        39.55824         0.23438
C         52.66817        41.66602         0.11444
C         51.44354        42.40818         0.32201
C         52.71539        44.56866         0.42955
C         51.42369        43.81576         0.30239
C         52.66569        45.96439        -0.13069
C         51.41896        46.65139        -0.21295
C         52.63889        48.71745        -0.98860
C         51.38135        48.02697        -0.53356
C         52.62848        50.20408        -0.75373
C         51.36240        50.89001        -0.82593
C         51.29732        52.29748        -0.85839
C         54.83312        23.12699         1.00395
C         53.63928        22.43964         0.81391
C         54.88869        24.52862         0.90020
C         53.68843        25.23957         0.59304
C         54.96616        27.36992         0.55974
C         53.72456        26.66836         0.45056
C         55.00980        28.78293         0.40193
C         53.80219        29.50884         0.20012
C         55.08422        31.62636         0.14220
C         53.83150        30.93745         0.11295
C         55.09504        33.05719         0.10391
C         53.86561        33.77342         0.14872
C         55.14148        35.93526         0.01257
C         53.91913        35.22083         0.55421
C         55.08818        37.38103        -0.18551
C         53.91031        38.08434        -0.00676
C         55.13659        40.25495        -0.32919
C         53.83020        39.51691        -0.47049
C         55.14595        41.65490        -0.23753
C         53.91597        42.39554        -0.06417
C         55.16101        44.50890        -0.13824
C         53.93270        43.78554        -0.00303
C         55.14917        45.92769        -0.20583
C         53.89864        46.64416        -0.30656
C         55.12693        48.77215        -0.53159
C         53.91353        48.03897        -0.55875
C         55.07008        50.18650        -0.61097
C         53.84958        50.87085        -0.66015
C         57.33599        24.60704         1.46148
C         56.14185        25.24951         1.07910
C         57.40189        27.37063         0.93694
C         56.16790        26.65811         0.85863
C         57.45165        28.76108         0.62699
C         56.26864        29.47606         0.41479
C         57.54354        31.61618         0.23203
C         56.30009        30.91128         0.24246
C         57.55407        33.03785         0.02836
C         56.32379        33.76106        -0.01411
C         57.50477        35.85046        -0.75130
C         56.28526        35.19937        -0.22053
C         57.50793        37.34566        -0.89459
C         56.29881        38.10146        -0.54464
C         57.61513        40.22628        -0.48959
C         56.34775        39.51328        -0.48716
C         57.62534        41.64980        -0.34613
C         56.39135        42.37058        -0.26162
C         57.63498        44.50590        -0.23031
C         56.39482        43.78717        -0.21519
C         57.62094        45.93390        -0.23776
C         56.38157        46.64837        -0.27884
C         57.63003        48.75302        -0.36243
C         56.38613        48.06821        -0.37617
C         58.52215        25.32249         1.64052
C         59.77665        27.48253         1.63464
C         58.58116        26.69637         1.37378
C         59.86306        28.77837         1.26488
C         58.80030        29.39391         0.38324
C         59.97096        31.61087         0.31235
C         58.77585        30.90820         0.36508
C         59.98970        32.99782         0.06954
C         58.81092        33.71144        -0.10521
C         60.04523        35.93223        -0.47181
C         58.82355        35.11353        -0.60814
C         60.05617        37.27389        -0.58459
C         58.85179        38.08132        -0.87218
C         60.05523        40.24075        -0.43693
C         58.84386        39.52920        -0.56463
C         60.06818        41.61796        -0.31084
C         58.86425        42.35997        -0.29138
C         60.08265        44.55157        -0.20387
C         58.86967        43.80310        -0.23333
C         60.07583        45.92750        -0.20304
C         58.85033        46.65091        -0.23787
C         58.82674        48.06966        -0.28228
O         41.78376        34.37241         1.72885
O         45.12456        36.94258        -1.54424
O         33.07819        23.92936        -2.08657
O         31.81292        39.00387         2.54176
O         37.00850        50.76807         2.18069
O         32.18732        35.56147         2.85205
O         30.82509        25.29097        -1.98603
O         27.58093        33.78530        -1.41587
O         31.33394        30.09895         2.19885
O         48.48917        42.06578         2.17266
O         26.13615        45.97100        -2.37174
O         32.83973        27.62625         1.86736
O         47.17448        22.75543        -2.51906
O         39.85696        20.98949         1.75310
O         58.11682        35.18927        -1.89718
O         50.14861        22.68746         1.37381
O         39.79118        27.02308         1.53940
O         58.15899        37.78621        -2.12762
O         43.13473        31.50336        -2.01557
O         43.00689        22.73465        -2.06240
O         52.62897        48.57508        -2.48041
H         53.46288        48.97891        -2.80504
O         35.42064        41.45492        -1.58305
H         35.37987        42.36173        -1.95613
O         34.58834        50.14887         2.16076
H         35.37893        50.09337         2.74812
O         29.14162        24.84549         1.20172
H         28.35821        25.23997         1.63963
O         42.84456        29.25917         1.28241
H         43.62341        28.82261         1.68736
O         36.46791        35.24693        -1.28725
H         37.23543        34.74843        -1.64149
O         53.58022        39.42904        -1.93222
H         54.38253        39.03645        -2.34005
O         39.13334        55.25991        -1.96341
H         38.31761        55.69558        -2.29104
O         33.93952        46.45314        -1.69239
H         34.71674        46.86466        -2.12414
O         25.19057        43.56040        -2.19671
H         25.62717        44.14556        -2.85630
O         41.39458        29.38399        -2.09882
H         42.00740        30.05859        -2.49011
O         40.56390        18.58322         2.20785
H         40.19650        19.37934         2.65892
O         45.48080        18.40742        -2.20509
H         46.31537        18.84101        -2.48689
O         38.71670        29.43378        -1.54492
H         39.58711        29.46591        -2.02094
O         43.72953        50.71051        -2.15218
H         44.52741        51.11454        -2.55710
O         28.16030        43.97091        -2.19432
H         27.55749        44.57773        -2.68513
O         37.11959        20.56589        -1.68943
H         36.44212        20.87756        -2.32510
O         39.14483        48.06642         2.53295
H         38.35977        47.60655         2.89878
O         32.97155        46.18409         1.81859
H         32.19350        45.77868         2.25513
O         49.10457        20.84846        -2.61136
H         48.39274        21.41919        -2.99461
O         42.62140        41.61326         2.74212
H         43.53933        41.46155         3.07814
O         29.85122        35.75793        -0.96719
H         29.25282        35.35965        -1.63905
O         52.81573        37.60438         2.03990
H         52.06254        37.13967         2.46184
O         59.16931        29.01486        -0.99425
H         59.15486        28.03497        -1.03906
O         26.50072        39.62815         2.78745
H         27.40608        39.52909         3.17535
O         29.19552        39.71678         2.91280
H         30.08221        39.37038         3.19340
O         29.62441        35.66701         2.67163
H         30.35017        35.69744         3.34463
O         39.45607        51.33111         2.28676
H         38.61934        51.48350         2.78637
O         31.41745        33.20798         2.80249
H         31.83967        33.90760         3.36965
O         42.53143        45.71112        -1.47616
H         42.57591        46.60745        -1.87448
O         52.89960        44.76305         1.89323
H         52.87090        43.87427         2.30860
O         37.24427        20.54646         1.95141
H         38.02432        20.55172         2.55085
O         46.43403        26.89264        -2.83698
H         47.15935        26.34123        -3.19988
O         54.11054        35.18070         2.02098
H         53.35609        34.68172         2.39963
O         48.73117        50.68429        -2.63035
H         49.58421        50.98323        -3.01313
O         38.03368        24.69705        -1.98447
H         37.23290        24.32755        -2.41255
O         33.83196        21.13789         1.47542
H         34.71323        21.21183         1.90382
O         45.34889        41.52137         2.71264
H         46.30511        41.48862         2.94209
O         47.92241        31.91360        -2.51403
H         48.73870        32.43227        -2.67817
O         41.52262        55.12585         1.81909
H         42.38592        55.50317         2.09345
H         22.17959        27.13498        -1.74246
H         22.18990        29.56619        -1.36399
H         22.14573        31.29862        -0.56317
H         22.12873        33.65062         0.03609
H         22.13247        35.43305         0.62149
H         22.08350        37.82323         1.04516
H         22.01314        39.74299         0.86787
H         22.00304        42.15286         0.46606
H         22.12887        44.12186         0.45799
H         22.12724        46.46206        -0.28656
H         25.38838        23.63996        -1.50139
H         23.34119        24.97232        -1.78029
H         25.38289        49.67036        -1.26772
H         23.28719        48.43681        -1.12040
H         26.99447        22.60023        -1.21539
H         27.00327        50.64471        -1.14254
H         29.05744        21.35160        -1.08489
H         29.08013        51.88404        -0.96226
H         32.84381        19.18335        -0.55002
H         30.80430        20.35253        -1.10816
H         32.78021        54.06340        -0.62330
H         30.71129        52.84178        -0.89418
H         34.45932        18.28956         0.27516
H         34.39924        54.95680        -0.64916
H         36.57696        17.05661         0.19146
H         36.52865        56.14344        -0.78242
H         40.32204        14.91731         0.16847
H         38.20260        16.12531         0.25989
H         40.19328        58.38927         0.23345
H         38.07174        57.15449         0.07149
H         42.73549        14.89751        -0.26058
H         42.65204        58.38089        -0.38406
H         44.86721        16.12993        -0.65981
H         44.77643        57.16699        -0.57306
H         48.56602        18.60074         0.31937
H         46.47746        17.28282         0.43487
H         48.47844        55.00356        -1.06515
H         46.39342        56.22295        -0.82610
H         50.33235        19.21503        -0.85744
H         50.10190        54.07661        -0.76633
H         52.09868        20.32973         0.31830
H         52.21908        52.89265        -0.83941
H         55.73782        22.54985         1.23516
H         53.64282        21.34620         0.91249
H         55.99165        50.77958        -0.55460
H         53.87748        51.96775        -0.59871
H         57.34438        23.52710         1.66054
H         57.65387        49.84936        -0.42020
H         59.42422        24.79943         1.98939
H         60.59982        27.00212         2.18540
H         60.77392        29.35185         1.49096
H         60.92950        31.07944         0.38751
H         60.96402        33.49275        -0.03966
H         60.98326        35.42430        -0.20502
H         61.00394        37.80138        -0.40534
H         61.01485        39.70974        -0.48622
H         61.03771        42.12890        -0.25228
H         61.04895        44.03033        -0.18952
H         61.02400        46.48419        -0.18947
H         59.77744        48.62201        -0.27377
