         276
 CSIRO Nanostructure Databank - Neutral Graphene Oxide Data Set
C        -10.67366         0.53933        -1.59706
C         -9.48085         1.41843        -1.66040
C         -8.13694         0.74502        -1.33215
C         -7.05210         1.52378        -0.64048
C         -5.76874         0.84054        -0.25739
C         -5.17584         1.46011         1.04717
C         -3.91923         0.74817         1.60498
C         -2.61174         1.51334         1.94437
C         -1.34136         0.70126         1.58835
C         -0.04821         1.49403         1.86380
C          1.25578         0.67895         1.52130
C          2.51156         1.42963         1.10406
C          3.43532         0.74737         0.05849
C          4.76510         1.43242        -0.00043
C          5.99553         0.64113        -0.06632
C          7.31961         1.33423         0.02894
C          8.57972         0.58264        -0.33498
C          9.88161         1.30951        -0.43948
C         11.07115         0.52719        -0.88988
C         -9.67294         2.84458        -1.37562
C         -8.69598         3.83533        -1.65577
C         -7.36908         2.69146         0.28751
C         -6.19320         3.60587         0.47994
C         -5.06066         2.97073         0.87257
C         -3.85625         3.74102         1.40131
C         -2.59437         2.90855         1.29892
C         -1.32565         3.60075         1.05995
C         -0.01924         2.88023         1.23653
C          1.25784         3.66672         1.42174
C          2.50272         2.91989         0.99614
C          3.54372         3.63036         0.16244
C          4.81000         2.87782        -0.14552
C          6.13294         3.60356        -0.24834
C          7.39840         2.86476         0.22903
C          8.66358         3.49922        -0.34120
C          9.79793         2.78975        -0.55017
C         -8.56512         4.93326        -0.79246
C         -7.28145         5.65271        -0.68257
C         -6.29564         5.12947         0.39000
C         -4.89861         5.69403         0.20083
C         -3.79227         5.08739         0.68995
C         -2.47210         5.81004         0.50427
C         -1.33132         5.10181         1.19265
C         -0.07606         5.88826         1.41476
C          1.23938         5.15609         1.36711
C          2.35682         5.87580         0.67847
C          3.55000         5.13367         0.15494
C          4.87624         5.82166         0.16303
C          6.15969         5.10101        -0.13872
C          7.52857         5.83061         0.03338
C          8.67594         5.00575        -0.61789
C         -7.06369         6.76869        -1.41269
C         -5.81380         7.56117        -1.33021
C         -4.71583         6.99914        -0.50125
C         -3.73029         7.94246         0.12224
C         -2.58046         7.30919         0.82617
C         -1.33876         8.13386         1.05816
C         -0.04400         7.40457         1.25545
C          1.23224         8.07742         0.88241
C          2.38365         7.36060         0.75519
C          3.63799         7.98663         0.19994
C          4.82817         7.12784         0.54546
C          6.65238         8.18019        -0.11683
C          7.46412         7.22429        -0.62803
C         -5.79049         9.02199        -1.58359
C         -4.72644         9.79025        -1.24967
C         -3.59180         9.29957        -0.46725
C         -2.44043        10.00451        -0.31259
C         -1.35223         9.62459         0.67067
C          0.02903        10.12960         0.28006
C          1.20966         9.49737         0.51282
C          2.52270        10.22111         0.18390
C          3.83127         9.46358         0.54886
C          5.00938        10.05232        -0.25656
C          6.20433         9.49527        -0.57839
C        -10.58280        -0.79899        -1.45997
C         -9.31130        -1.51502        -1.42247
C         -8.07517        -0.73994        -1.21148
C         -6.88265        -1.36716        -0.96309
C         -5.56268        -0.62773        -0.66197
C         -4.66524        -1.41712         0.35634
C         -3.83047        -0.73269         1.42075
C         -2.53313        -1.47064         1.84150
C         -1.32859        -0.64995         1.43964
C         -0.15426        -1.42386         0.85799
C          1.16929        -0.76676         1.15851
C          2.37296        -1.50245         0.62929
C          3.58591        -0.74448         0.24950
C          4.57688        -1.45184        -0.65240
C          5.90887        -0.70723        -0.72945
C          7.14964        -1.45897        -1.06850
C          8.48409        -0.76796        -0.98511
C          9.74367        -1.54585        -1.21323
C         11.03284        -0.81460        -1.04133
C         -9.29914        -2.87339        -1.54874
C         -7.98984        -3.56598        -1.83977
C         -6.83381        -2.84874        -1.10155
C         -5.89337        -3.61528        -0.22353
C         -4.77655        -2.90450         0.49273
C         -3.95655        -3.55472         1.63290
C         -2.55037        -2.92379         1.40908
C         -1.42470        -3.59975         1.08696
C         -0.08135        -2.91202         1.31646
C          1.07514        -3.66890         0.68616
C          2.20290        -2.89118         0.03083
C          3.55748        -3.58610         0.03219
C          4.70248        -2.90631        -0.23434
C          6.10014        -3.49955        -0.10564
C          7.07000        -2.99164        -1.19428
C          8.42306        -3.69167        -1.04934
C          9.62846        -3.01834        -1.14868
C         -7.89006        -5.05589        -1.64966
C         -7.55414        -5.64992        -0.32364
C         -6.26946        -4.97682         0.26591
C         -5.19743        -5.76130         0.95090
C         -3.92116        -5.15380         1.58657
C         -2.71278        -5.80202         0.94159
C         -1.44899        -5.02230         0.67296
C         -0.19066        -5.76437         0.49677
C          1.02879        -5.05864         0.50489
C          2.32736        -5.83989         0.38733
C          3.51525        -5.06179        -0.21456
C          4.79112        -5.77579         0.15340
C          6.09256        -5.01880         0.04974
C          7.25313        -5.82913        -0.42901
C          8.38673        -5.11431        -0.88990
C         -7.46479        -7.16952        -0.30472
C         -6.42298        -7.89307         0.18686
C         -5.15744        -7.20785         0.56591
C         -3.90219        -7.98979         0.72209
C         -2.61001        -7.31234         1.18431
C         -1.50400        -7.97232         0.37207
C         -0.26623        -7.18007         0.06222
C          0.96975        -7.92136        -0.36096
C          2.27047        -7.13594        -0.41615
C          3.59159        -7.85092        -0.56332
C          4.80432        -7.21553        -0.05203
C          6.05182        -7.96953         0.30910
C          7.17104        -7.22159        -0.39917
C         -6.32786        -9.35074         0.05620
C         -5.21060       -10.06949         0.30692
C         -3.95823        -9.49351         0.93207
C         -2.63822       -10.15056         0.53754
C         -1.47882        -9.46650         0.39786
C         -0.14539       -10.18057         0.24379
C          1.00826        -9.36844        -0.30751
C          2.23578       -10.12691        -0.72939
C          3.57933        -9.35590        -0.73994
C          4.83611       -10.07604        -0.39225
C          5.96107        -9.44104        -0.02207
O         -6.25230         1.28969         2.00151
O          6.17342         4.40901        -1.45597
O          5.53643        -5.34200         1.36841
O         -0.75041         8.01669         2.39002
O         -3.80825        -2.30574        -0.43621
O         -5.62464        -3.48345        -1.66068
O         -1.32658        -7.43188        -0.95090
O         -4.43575        -3.17192         2.87020
O          5.94445         7.77986         1.05351
O          9.44937         0.69578         0.84296
O         -6.33089        -5.22702         1.70004
O         -3.72537         7.77673         1.58167
O          3.50431        -1.34296         1.55628
O         -0.06687         1.67667         3.24460
O          3.74213        -8.50093        -1.88928
O         -4.64162         6.87899        -1.95267
O          2.47788         5.54808        -0.78212
O          1.41738        -0.34756         2.52183
O         -4.23776        -7.46495        -0.58506
O         -0.53954         3.04122        -0.11370
O         -5.81409         1.74352        -1.38484
O          1.51613         4.45614         2.61364
O          6.75618         0.65673         1.20763
O          1.48134        -7.21084        -1.59991
O          6.39494        -0.73273        -2.10839
O          3.77582         3.22582        -1.21891
O          3.15111         2.22090         2.12028
O          9.03991        -0.86664        -2.34246
O         -0.94696         5.51141         2.52390
O         -8.48479         1.13081        -2.70445
O         -2.46274        -5.32253        -0.38155
O         -4.42141        -0.18120         2.62138
O          2.70095         0.84997        -1.19416
H          2.91362         1.72918        -1.60151
O         -4.84749        -0.58364        -1.90159
H         -4.54128        -1.50174        -2.09069
O         -2.62337         1.79511         3.35669
H         -1.65092         1.79615         3.65044
O          1.78767        -2.80345        -1.36367
H          2.40552        -2.17443        -1.82405
O          6.51407        -3.32900        -2.47180
H          7.03841        -2.87167        -3.16294
O         -1.67891        10.37291         1.87669
H         -1.35548         9.83480         2.63690
O         -8.61971        -5.25291         0.58211
H         -8.28700        -5.40904         1.49614
O         -3.95823        -5.57016         2.95908
H         -4.28920        -4.73541         3.43268
O          8.68171         5.19577        -2.03767
H          7.80808         4.88668        -2.37435
O         -4.07964        -9.71883         2.36464
H         -3.36475        -9.19249         2.79915
O         -2.11858         5.79701        -0.90909
H         -2.11973         4.87085        -1.23335
O          6.64071        -2.95048         1.11974
H          6.16271        -3.36854         1.87070
O          2.58045        11.47356         0.87597
H          1.68312        11.86417         0.91083
O         -6.79898         5.60430         1.65663
H         -6.18408         5.29535         2.35909
O          4.05889         9.58591         1.95231
H          3.82335        10.50941         2.19482
O         -0.32794        -1.38555        -0.57278
H         -1.11815        -1.91609        -0.81217
O         -2.47194        -1.54991         3.27755
H         -3.28743        -2.08658         3.52640
O          0.24059       -10.69344         1.55613
H          0.22061        -9.95315         2.19870
O         -7.76106         3.66208        -2.61204
H         -7.84860         2.75490        -3.00327
O         -2.33445        -7.57593         2.57319
H         -2.88212        -6.92951         3.10045
O          3.52652         7.96623        -1.25178
H          3.18594         7.07255        -1.51310
O         -4.13850         4.01292         2.80819
H         -3.71271         3.29308         3.34319
O          4.01069        -1.45707        -1.98428
H          4.76887        -1.52284        -2.61577
O         -7.75099        -3.30558        -3.24412
H         -6.80581        -3.51194        -3.41764
O          2.65695        -6.25935         1.73348
H          2.76530        -5.46452         2.29872
O          3.40581        -5.16479        -1.65480
H          2.68116        -4.55825        -1.94301
O         -8.43678         2.80280         0.86495
H         -5.93371         0.69283         2.72392
O          0.13890        -2.93897         2.74687
H         -0.56967        -2.39684         3.17538
O          7.41717         3.10448         1.65185
H          7.96006         2.40429         2.07471
O          6.26999        -7.92532         1.75336
H          6.19257        -6.97846         2.02389
O          7.85297         5.94498         1.41952
H          7.23093         6.59275         1.82397
O          2.39219       -11.33177         0.00855
H          1.79703       -11.31828         0.79673
H         11.96232        -1.37284        -1.23086
H         12.03879         1.05154        -0.91179
H         10.69730         3.31675        -0.90694
H          9.64091         5.42318        -0.23479
H          8.04284         7.39251        -1.54787
H          6.88306        10.06125        -1.23699
H          4.81861        11.05836        -0.66769
H          2.52675        10.41266        -0.93021
H          0.05380        11.17360        -0.07728
H         -2.35248        10.99733        -0.78154
H         -4.71765        10.85411        -1.53141
H         -6.64182         9.46747        -2.12032
H         -7.84471         7.11777        -2.10615
H         -9.28836         5.03772         0.03236
H        -10.46577         3.10233        -0.65833
H        -11.66039         1.02354        -1.62545
H        -11.49955        -1.40616        -1.42861
H        -10.24173        -3.42640        -1.66988
H         -7.74636        -5.65975        -2.55886
H         -8.35137        -7.70413        -0.68078
H         -7.21474        -9.86724        -0.34355
H         -5.22777       -11.15711         0.13683
H         -2.61524       -11.25270         0.53133
H         -0.27816       -11.09054        -0.39812
H          2.07928       -10.42285        -1.81433
H          4.82955       -11.17109        -0.49745
H          6.85856       -10.03755         0.20265
H          7.94667        -7.80410        -0.92039
H          9.32482        -5.67193        -1.04069
H         10.56115        -3.59657        -1.05139
