         300
 CSIRO Nanostructure Databank - Neutral Graphene Oxide Data Set
C         30.16661        31.74194        -0.41641
C         30.32496        32.90960        -0.03964
C         30.47732        36.05757         0.68784
C         30.41915        37.13661         1.28522
C         30.34213        40.43938         1.03482
C         30.39613        41.66905         0.89700
C         32.39986        28.75778        -0.94407
C         31.34271        29.42243        -0.87119
C         32.50405        31.32885         0.12469
C         31.09158        30.62900        -0.01390
C         32.71849        32.77652         0.65577
C         31.52793        33.70423         0.19439
C         32.87521        35.72367         1.18557
C         31.60242        35.15251         0.48832
C         32.88113        37.27617         1.28207
C         31.53177        38.06600         1.46606
C         32.69794        40.19494         0.62653
C         31.48823        39.54469         1.31205
C         32.78667        41.70628         0.53198
C         31.49420        42.56736         0.54246
C         32.95945        44.37802         1.25289
C         31.83731        43.88290         1.07390
C         35.42347        27.26619        -1.07451
C         35.12645        28.71438        -1.11056
C         33.74574        29.43587        -1.09950
C         35.58902        31.46462         0.32256
C         33.56501        30.48476         0.01991
C         35.43184        32.93461         0.59439
C         34.05662        33.53990         0.12320
C         35.28602        35.79357         0.37174
C         34.12776        35.08652         0.52250
C         35.45870        37.27570         0.71364
C         34.12972        38.03102         0.93094
C         35.17170        40.26342        -0.16130
C         33.95745        39.42535         0.35807
C         35.22669        41.62056         0.53577
C         34.11497        42.30626         0.89594
C         35.54611        44.38781         1.47129
C         34.20989        43.65008         1.69983
C         35.96595        45.29892         2.63638
C         37.90044        27.16595        -1.03891
C         36.50941        26.67760        -1.10899
C         37.81469        28.66151        -0.72812
C         36.47949        29.40483        -0.79693
C         37.82895        31.52033        -0.57744
C         36.56833        30.82691        -0.36178
C         37.72990        32.98231        -0.69542
C         36.51477        33.68412        -0.17254
C         37.65246        35.91647        -0.70711
C         36.67121        35.14438         0.19732
C         37.71532        37.39600        -0.55095
C         36.35905        38.05344        -0.32056
C         37.70721        40.24681        -0.52797
C         36.53263        39.52581         0.13168
C         37.69809        41.71003        -0.28932
C         36.53790        42.31709         0.43598
C         38.18104        43.90670         1.59308
C         36.75344        43.32245         1.54526
C         38.42880        45.03991         2.57896
C         37.11872        45.53498         3.01300
C         40.24060        24.43237         0.22098
C         39.27104        24.99992        -0.29527
C         40.11644        27.13313         0.19513
C         39.21989        26.40404        -0.87290
C         40.25098        28.65316         0.10113
C         38.90811        29.40614         0.04722
C         40.26132        31.60454        -0.31760
C         39.00250        30.84269        -0.46235
C         40.28991        33.07251        -0.66574
C         38.98990        33.78271        -0.76784
C         40.13268        35.94864        -1.64593
C         38.85802        35.19487        -1.23529
C         40.17710        37.29563        -0.84125
C         38.86198        38.09536        -0.82927
C         40.10600        40.31075        -1.34813
C         38.85845        39.57280        -0.83396
C         40.20329        41.82390        -0.99002
C         38.99874        42.47210        -0.37341
C         40.42099        44.39095         0.46781
C         39.02892        43.84552         0.30970
C         40.63020        45.55444         1.33713
C         39.64431        45.89802         2.42913
C         40.65917        48.10445         2.47991
C         39.70393        47.34409         2.69937
C         42.79797        24.49323         0.82881
C         41.39819        25.00716         0.98069
C         42.80956        27.17902         0.01457
C         41.50074        26.44714         0.26167
C         42.88448        28.68937        -0.31864
C         41.56245        29.37982        -0.00580
C         42.81743        31.65143        -0.27517
C         41.54593        30.88759        -0.13237
C         42.78627        32.99283        -0.58005
C         41.55427        33.60412        -1.31713
C         42.79537        35.91316        -1.24848
C         41.50750        35.15784        -1.47623
C         42.74688        37.39868        -0.82651
C         41.47899        38.11570        -1.36658
C         42.83564        40.45659        -1.73070
C         41.34803        39.56283        -0.86085
C         42.86141        41.81258        -1.04336
C         41.56261        42.61226        -1.03157
C         42.85404        44.61847        -0.19450
C         41.68271        43.66303         0.09504
C         42.86165        45.91926         0.21183
C         41.65586        46.54842         0.84502
C         43.03153        48.50121         1.37433
C         41.66322        47.98517         1.42489
C         43.85076        25.13398         0.80648
C         45.26619        27.35826         0.83051
C         44.13019        26.51193         0.38401
C         45.18424        28.87661         0.83689
C         44.03151        29.50168         0.31071
C         45.16329        31.67206         0.52978
C         44.00614        30.92689         0.21158
C         45.23291        33.08234         0.03151
C         43.93004        33.87849        -0.13212
C         45.30504        35.97996        -0.54398
C         44.12894        35.11616        -1.03469
C         45.31371        37.46309        -0.74330
C         44.04582        38.10832        -1.24618
C         45.35619        40.32202        -1.03332
C         44.08582        39.57953        -1.51743
C         45.29728        41.77588        -1.54265
C         44.04568        42.48896        -0.99145
C         45.36824        44.55664        -0.42116
C         44.04546        44.02843        -0.96930
C         45.36104        45.91303         0.24834
C         44.14804        46.76644        -0.03539
C         43.99466        47.99620         0.80359
C         47.18529        27.62047         2.32245
C         46.35772        26.94438         1.70619
C         47.51621        29.00229         1.91977
C         46.29149        29.64932         1.28776
C         47.45856        31.90019         1.50899
C         46.31246        31.04115         1.04967
C         47.70728        33.22205         0.82382
C         46.53364        33.81963         0.09121
C         47.78637        36.13623         0.06733
C         46.62168        35.27390        -0.30728
C         47.70956        37.67872        -0.08274
C         46.67383        38.06351        -1.17673
C         47.91746        40.35489        -1.14054
C         46.64536        39.60968        -1.51829
C         47.93518        41.74749        -1.25337
C         46.65062        42.52627        -1.38071
C         48.00639        44.78985        -0.88674
C         46.65331        43.99042        -1.00604
C         47.79791        45.79468         0.20552
C         46.72826        46.41504         0.30917
C         49.72299        29.49870         3.38606
C         48.62771        29.82365         2.46508
C         49.85740        32.12786         2.60749
C         48.57206        31.33333         2.33180
C         49.90586        33.58183         2.22428
C         48.85956        34.09360         1.24504
C         50.20306        36.13701         0.61847
C         48.82550        35.62894         1.06628
C         50.29670        37.46647        -0.11513
C         49.07583        38.27404        -0.40730
C         50.42657        40.24033        -1.15298
C         49.12673        39.58629        -0.84920
C         50.45750        41.77781        -1.34017
C         49.17128        42.49505        -1.12079
C         50.49945        44.33131        -0.65842
C         49.18938        43.87318        -0.78106
C         50.73894        30.13900         3.68580
C         52.18659        32.33221         3.23934
C         51.19446        31.28979         2.82099
C         52.26561        33.46902         2.76103
C         51.22561        34.37151         2.26205
C         52.59583        36.27020         0.96492
C         51.38086        35.60821         1.44673
C         52.69631        37.24735         0.21836
C         51.62273        38.21495        -0.07224
C         52.89079        40.31491        -1.11119
C         51.69688        39.57843        -0.64754
C         52.84572        41.56343        -1.18412
C         51.78978        42.49561        -1.17688
C         51.65857        43.82280        -0.77314
O         32.15125        42.25609        -0.67902
O         39.27807        42.60317        -1.81424
O         45.14888        36.89936         0.59828
O         36.62865        33.37806        -1.57318
O         40.82657        31.44138         1.03982
O         47.43618        31.96623         2.98170
O         50.39972        36.17175        -0.80601
O         42.33886        35.60783        -2.58332
O         39.77778        33.81277         0.48100
O         51.59944        39.37056         0.79687
O         38.78928        43.67016         2.89416
O         40.06578        40.23268        -2.82685
O         34.61695        30.66259         0.90842
O         33.75333        37.79894         2.33397
O         42.40224        40.55153        -2.94210
O         47.75347        35.44974        -1.19971
O         36.73454        42.61665        -0.97020
O         31.84101        34.66449        -0.85402
O         46.56770        39.73618        -2.99164
O         46.60013        43.58896        -2.40375
O         31.59318        38.95424         2.60941
O         40.87396        45.21189         2.79727
O         37.73573        35.48593        -2.10537
O         43.11170        28.67756        -1.77938
O         41.03706        29.01063         1.30553
O         45.25730        44.69345         1.03042
O         44.23828        38.60674        -2.58953
O         48.93341        33.30130         0.02823
O         48.73215        29.17529         1.16087
O         51.09815        35.68436         2.87521
O         32.89176        39.48891        -0.63812
O         38.15246        28.17537        -2.05208
O         50.46948        40.83625        -2.46582
O         35.93934        29.28879        -2.15919
O         35.08488        40.45619        -1.52272
O         45.22073        26.79306        -0.50794
O         41.12010        47.71917         0.12302
O         46.15210        33.05561        -1.10342
O         49.55582        33.17120         3.57235
O         42.14073        26.41233        -1.02506
O         43.95568        44.44211        -2.34319
H         43.04553        44.19354        -2.65321
O         42.06806        42.89073         1.27923
H         41.93062        43.46337         2.06984
O         33.65494        30.18801        -2.29880
H         34.49340        30.09341        -2.81061
O         36.14768        37.27715         1.98740
H         35.45866        37.14562         2.68192
O         41.54963        43.29377        -2.30812
H         41.54081        42.58649        -2.99719
O         48.20427        45.52097        -2.09606
H         47.74198        45.04586        -2.82364
O         45.36863        40.31869         0.39814
H         44.69476        40.94846         0.73356
O         45.05527        41.70089        -2.95459
H         45.03539        42.62504        -3.29361
O         47.92534        39.65119        -3.52413
H         47.98072        40.45943        -4.09051
O         35.56458        33.17569         2.00938
H         34.70386        32.92725         2.42963
O         38.42509        29.50094         1.40445
H         39.14623        29.92249         1.92636
O         41.56689        38.08517        -2.75761
H         40.94017        38.72781        -3.17087
O         48.50993        36.20274         2.34922
H         49.28340        36.06432         2.95578
O         44.22732        47.12687        -1.40455
H         43.47593        47.71673        -1.62290
O         47.01420        37.38469        -2.37832
H         46.66004        37.90259        -3.13831
O         34.07010        43.31815         3.06498
H         34.48710        44.02600         3.60470
O         40.35739        36.88799         0.50893
H         40.10122        37.60844         1.12087
O         39.39935        26.92872         1.41976
H         39.83581        27.44964         2.12814
O         41.57521        33.05477        -2.64616
H         42.15275        33.63949        -3.19008
O         36.54696        42.56804         2.74111
H         37.26305        42.80365         3.37898
O         42.68499        37.47932         0.61194
H         43.50820        37.07335         0.99669
O         32.84299        35.25461         2.54399
H         33.20776        35.96066         3.12193
O         42.89791        30.03080        -2.26741
H         43.54388        30.08192        -3.01429
O         38.29158        44.76848        -0.56442
H         38.49291        44.50755        -1.49370
O         30.76113        30.20667         1.29578
H         30.01010        29.57929         1.24843
O         47.28047        38.29281         1.13984
H         47.64414        37.77796         1.89972
O         32.78334        32.73298         2.08208
H         32.09039        32.12178         2.41259
O         40.00361        36.19761        -3.03530
H         39.04268        36.22796        -3.25428
O         38.70225        40.41292        -3.27130
H         38.53044        41.37453        -3.07609
O         37.32215        35.15969         1.48628
H         36.81613        34.56275         2.08812
O         43.56591        34.39876         1.17339
H         42.97466        33.76156         1.62891
O         39.87674        26.40388        -2.11554
H         39.24445        26.17841        -2.82750
O         35.53257        45.05887         0.26122
H         36.45149        45.22510        -0.06039
O         34.07595        33.41657        -1.28468
H         33.33585        33.93784        -1.67314
O         35.67978        37.97944        -1.57545
H         35.43445        38.89936        -1.90468
O         41.09888        25.18376         2.33612
H         40.80075        24.33445         2.72006
O         44.52553        34.60694        -2.31000
H         44.56157        35.34035        -2.95929
O         36.84177        39.69845         1.51896
H         36.69274        38.85372         2.01907
O         51.56407        30.78966         1.56760
H         52.30806        30.15986         1.65839
O         41.47348        39.75010         0.48980
H         42.05748        39.03585         0.87335
