         280
 CSIRO Nanostructure Databank - Neutral Graphene Oxide Data Set
C         30.84383        30.99280         0.53459
C         30.81474        32.20884         0.23624
C         30.71690        35.32757        -0.28751
C         30.97626        36.34831        -0.93780
C         31.77705        38.44718        -2.74650
C         32.28935        39.06814        -3.68503
C         32.82704        28.42186         2.49289
C         31.93162        28.95706         1.75351
C         32.70149        31.22970         2.01532
C         31.67322        30.27753         1.41941
C         32.70411        32.64892         1.63323
C         31.49154        33.25836         1.03710
C         32.51119        35.70968         1.33337
C         31.42651        34.72483         0.82599
C         32.53537        37.12874         0.78019
C         31.43383        37.62173        -0.27657
C         33.01356        39.64914        -0.98158
C         31.93754        38.63406        -1.28948
C         33.53318        40.57320        -2.06244
C         32.69275        40.46645        -3.76939
C         34.60765        41.96481        -4.19202
C         33.83221        41.04282        -4.49291
C         35.46554        27.19186         1.02348
C         35.33659        28.46253         1.73353
C         34.15796        29.05094         2.44393
C         35.32462        31.42230         2.59436
C         34.01972        30.58104         2.50477
C         35.13707        32.86807         2.06024
C         33.78532        33.54558         2.12863
C         34.98596        35.96570         2.31430
C         33.72152        35.06811         2.01798
C         34.98613        37.42351         1.66401
C         33.76814        38.03769         0.98864
C         35.15485        40.22637         0.46202
C         33.74419        39.50447         0.37218
C         35.25392        41.57750        -0.31227
C         34.70438        41.46736        -1.79649
C         36.38559        43.21542        -2.68629
C         35.42583        42.12553        -2.97884
C         36.75291        44.43161        -3.42023
C         37.26539        27.61795        -0.57251
C         36.10200        26.93278        -0.00286
C         37.31037        29.01583         0.05600
C         36.29416        29.45841         1.08013
C         37.72187        31.55021         1.59070
C         36.52317        30.71410         1.88866
C         37.67855        32.99508         2.02882
C         36.35744        33.70498         1.86182
C         37.65775        35.93581         1.99367
C         36.34538        35.19924         2.12679
C         37.64040        37.45216         1.85894
C         36.32111        38.17722         1.68332
C         37.68281        40.38345         1.40164
C         36.32986        39.63559         1.21395
C         37.72112        41.80746         0.72452
C         36.63115        42.32335        -0.22404
C         38.40764        43.94885        -1.38139
C         37.02431        43.31657        -1.30566
C         38.66708        45.25292        -2.17994
C         37.53128        45.34535        -3.12417
C         39.75433        25.17078        -2.05579
C         38.71455        25.58198        -1.48534
C         39.87083        27.63825        -0.94708
C         38.46675        27.01628        -1.20839
C         39.87025        29.14966        -0.56867
C         38.57161        29.84078        -0.17564
C         39.99130        31.97667         0.43707
C         38.68274        31.19710         0.46676
C         40.21207        32.85689         1.65911
C         38.96335        33.73663         1.94063
C         40.17988        35.92653         1.94719
C         38.91460        35.19801         1.48564
C         40.16333        37.43660         1.87956
C         38.91075        38.11036         1.49176
C         40.25368        40.22890         1.00146
C         38.92060        39.53097         1.09428
C         40.34539        41.71790         0.85735
C         39.06068        42.48074         0.64845
C         40.38109        44.57972         0.19600
C         39.35117        43.60588        -0.30260
C         40.43904        45.98708        -0.37289
C         39.68860        46.24091        -1.69500
C         40.87159        48.37797        -1.76309
C         39.91508        47.65244        -2.06613
C         42.14755        25.53086        -3.10718
C         40.95485        25.78739        -2.42516
C         42.04500        28.19229        -2.39737
C         40.87746        27.28972        -2.07286
C         42.19613        29.55107        -1.73471
C         41.07760        30.02215        -0.83030
C         42.53819        31.89664         0.03733
C         41.14105        31.46992        -0.36847
C         42.71027        33.01131         1.01321
C         41.49523        33.68403         1.62818
C         42.71486        35.89929         1.35306
C         41.49039        35.16062         1.88526
C         42.77636        37.36710         1.73497
C         41.49846        38.14747         1.81893
C         42.78851        40.32473         1.79529
C         41.60108        39.51676         1.12958
C         42.86605        41.84524         1.52584
C         41.62648        42.49067         0.98709
C         42.83918        44.78268         0.79648
C         41.55869        44.00040         0.92057
C         42.72640        46.29615         0.86918
C         41.53474        46.89226         0.11596
C         43.11049        48.77319        -0.46493
C         41.66067        48.64623        -0.54918
C         43.04391        26.28517        -3.56079
C         44.61000        28.33943        -3.01331
C         43.27423        27.67697        -3.16732
C         44.79691        29.49145        -2.01235
C         43.53839        30.24167        -1.65071
C         45.06408        32.13718        -0.60642
C         43.71010        31.51160        -0.83372
C         45.25831        33.40577         0.24821
C         44.02897        33.73326         1.12420
C         45.36975        35.88411         1.54514
C         44.03315        35.14966         1.58914
C         45.31120        37.33571         1.16027
C         44.02466        38.08403         1.27672
C         45.37632        40.33259         1.20278
C         44.06078        39.60872         1.29569
C         45.44387        41.84812         1.12607
C         44.15428        42.60049         1.33521
C         45.41169        44.80949         1.19598
C         44.14500        44.04990         0.87695
C         45.33648        46.32422         1.29660
C         44.04611        47.05041         1.02332
C         43.99589        48.30464         0.25222
C         47.03924        28.28189        -3.07692
C         45.94058        27.75550        -3.24256
C         47.40923        29.54930        -2.44151
C         46.16441        30.08987        -1.72911
C         47.68941        31.89239        -0.58151
C         46.32761        31.46292        -1.09677
C         47.83654        32.95255         0.50694
C         46.54441        33.57005         1.12417
C         47.93612        35.87522         1.07087
C         46.65984        35.10944         1.40274
C         47.73139        37.30782         0.50580
C         46.62480        38.07289         1.22480
C         47.98850        40.33283         1.23005
C         46.66944        39.56768         1.32350
C         48.04466        41.84048         1.20915
C         46.74351        42.58451         0.95807
C         48.00794        44.85703         0.63647
C         46.71965        44.09960         0.84693
C         47.77217        46.27699         0.98093
C         46.67540        46.85025         0.99279
C         50.03561        29.32041        -2.22008
C         48.75395        30.00858        -2.00751
C         50.27033        31.52787        -0.48593
C         48.90733        31.02459        -0.86955
C         50.43542        32.94848         0.04020
C         49.19171        33.62969         0.61347
C         50.29243        35.88495        -0.01439
C         49.23398        35.15121         0.81323
C         50.11316        37.34736        -0.33682
C         49.06057        38.06454         0.47894
C         50.49628        40.27807         0.50288
C         49.21767        39.52009         0.86410
C         50.56260        41.73815         0.72961
C         49.37034        42.56908         1.00629
C         50.51393        44.60966         0.09605
C         49.31573        44.14093         0.76855
C         51.16963        29.73746        -1.98448
C         52.55895        31.83876        -1.48887
C         51.82985        30.65221        -1.04556
C         52.57800        33.02992        -1.18627
C         51.67456        33.75963        -0.27415
C         52.42474        36.09256        -1.06942
C         51.72835        35.25703        -0.03967
C         52.26538        37.27566        -1.35201
C         51.13075        38.22993        -1.14822
C         52.41142        40.46054        -1.10702
C         51.51714        39.52073        -0.46285
C         52.47703        41.70121        -1.10020
C         52.00308        42.70453        -0.23106
C         51.43650        43.97435        -0.44926
O         40.82520        28.16249        -3.22252
O         51.56241        33.04618         0.98191
O         36.07245        29.72278        -0.32181
O         48.10955        41.11436         2.46617
O         40.23227        46.94486         0.72705
O         44.56379        40.02168         0.01000
O         48.71514        32.72571         1.63840
O         42.61025        30.53032        -2.72848
O         41.26928        41.91563        -0.29526
O         48.94827        35.71067         2.10727
O         37.50110        27.69430        -2.00719
O         33.38918        34.36408         3.25590
O         38.16305        42.78031         1.72847
O         31.91395        36.81572         2.05226
O         36.33065        43.75532        -0.12884
O         44.16859        34.07329         2.53990
O         34.00787        38.20735         2.40614
O         36.93168        38.07612         3.00509
O         51.67547        39.52115         0.94875
O         46.18079        35.54268         2.70547
O         33.01586        30.99139         3.43257
O         49.57165        43.58836         2.06162
O         39.50767        43.04506        -1.64618
O         38.40481        33.36597         3.22452
O         44.20367        32.53395        -1.74063
O         41.72526        34.24289         2.96710
O         47.14220        32.43064        -1.82140
O         39.52771        39.76524        -0.21487
O         46.79609        38.69384         2.50842
O         45.55965        29.11595        -0.82153
O         37.20444        35.48883         3.27544
O         42.28899        37.83198         3.00240
O         40.29679        32.53295        -0.88087
O         49.58553        30.56633         0.33987
O         33.31281        41.96497        -1.77755
O         30.65994        34.09535         1.88596
O         43.56276        44.34003        -0.41512
O         45.35383        45.48627         2.48077
O         35.65686        33.14647         0.70928
O         40.00404        45.26885        -2.71079
O         47.21010        44.46468        -0.49624
O         42.82775        31.60900         1.43679
O         39.99669        36.68373         3.15498
O         46.01705        42.10349        -0.20717
O         35.29747        28.54572         3.17002
O         35.34546        40.46207         1.89592
O         38.19654        31.05042        -0.89229
O         49.66677        36.29287        -1.27491
O         44.50017        37.57065        -0.01886
O         40.94339        29.27916         0.42902
O         31.57806        39.96320        -0.86562
O         48.12894        30.53339        -3.20163
O         43.52111        42.51269         2.64937
O         49.50902        38.44238         1.80164
O         36.82777        41.90171        -3.19405
O         40.47833        44.59397         1.65667
O         43.09251        46.97091         2.10150
O         43.78712        28.61966        -4.14403
O         37.71722        30.60925         2.70742
O         51.84818        42.25746         1.12499
O         32.90572        40.24227         1.26784
H         33.24145        40.07483         2.18066
O         47.21376        37.18510        -0.82698
H         47.87352        36.71094        -1.38695
O         46.36944        32.86371         2.34092
H         46.13901        33.50587         3.05242
O         41.02275        49.44130         0.35782
H         40.12532        49.08561         0.53695
O         34.87641        36.22750         3.70366
H         35.65603        36.76164         3.98206
O         30.37728        38.17374         0.45661
H         30.35193        39.14560         0.30694
O         50.48448        38.59230        -2.35349
H         50.27290        37.77339        -2.85129
O         37.79699        40.59839         2.80855
H         36.95715        40.99365         3.13089
O         45.37778        34.48543        -0.70882
H         44.85133        34.25677        -1.51108
O         42.49591        35.85873        -0.08550
H         43.14293        36.48207        -0.51026
O         38.83752        35.21745         0.04620
H         39.55892        34.68461        -0.35517
O         52.29115        35.51616         1.22722
H         52.52085        34.67069         1.67107
O         40.34245        31.91193         2.72269
H         40.54963        32.40590         3.54644
O         31.61915        41.29696        -3.70527
H         31.90912        42.20042        -3.45581
O         34.35802        42.44310         0.37305
H         33.54967        41.93833         0.63055
O         40.28957        26.90929         0.22020
H         40.91262        27.46538         0.74401
O         42.65513        40.19797         3.20672
H         43.12778        40.94138         3.64536
O         52.38895        30.07119         0.05197
H         51.79312        29.38497         0.41568
O         35.64343        31.58124         3.97003
H         35.90260        30.71515         4.34973
O         42.00658        39.19340        -0.21037
H         41.80270        39.96105        -0.79414
