         576
 CSIRO Nanostructure Databank - Neutral Graphene Oxide Data Set
C          6.12816        19.14247        -1.34183
C          5.60449        20.26614        -0.77330
C          4.71565        21.31340        -1.24803
C          5.88925        23.34576        -0.18725
C          4.78271        22.61225        -0.81419
C          5.67789        24.72288        -0.00052
C          8.43511        14.75331        -0.70814
C          8.27666        16.14922        -0.17166
C          7.25122        17.00393        -0.86882
C          8.36806        19.03804        -0.08349
C          7.21501        18.36944        -0.69644
C          8.41861        20.45264         0.21401
C          7.21388        21.26108         0.31415
C          8.39898        23.32126         0.47274
C          7.14898        22.63712         0.09773
C          8.68305        24.73284         0.17940
C          6.72079        25.73735         0.05827
C          8.21787        27.65954         0.61996
C          6.89894        26.96985         0.64156
C          8.30495        29.02120         0.45752
C         10.98780        10.47981        -0.89900
C         10.92648        11.94771        -0.82278
C          9.72735        12.67893        -0.97742
C         10.87377        14.81932        -0.36729
C          9.65615        14.08778        -0.70568
C         10.81888        16.14902         0.03802
C          9.58626        16.87580        -0.01256
C         10.88998        18.95849         0.02404
C          9.57415        18.27455         0.06702
C         10.92042        20.49284         0.06009
C          9.64150        21.11055         0.39459
C         10.87906        23.31035         0.74094
C          9.62958        22.49926         0.83052
C         10.80300        24.69142         1.40387
C          9.61545        25.45232         0.84298
C         10.76891        27.67332         0.85533
C          9.47653        26.93507         1.13303
C         10.80072        29.00105         0.57060
C          9.56090        29.76749         0.45043
C         10.88504        31.87507         0.27959
C          9.62319        31.14093         0.29839
C         10.90240        33.32633         0.19479
C         13.62526         6.26457        -1.20051
C         13.49852         7.71108        -1.21311
C         12.29650         8.34999        -1.02045
C         13.44553        10.61343        -1.18691
C         12.17466         9.79159        -0.99890
C         13.32303        11.83309        -0.25766
C         12.12034        12.65479        -0.60102
C         13.24388        14.61604         0.53398
C         12.20646        14.14636        -0.56268
C         13.31240        16.10376         0.57914
C         11.99871        16.81858         0.74232
C         13.31668        18.97098         0.60122
C         12.11615        18.28277         0.42213
C         13.34571        20.42962         0.59606
C         12.19812        21.15368         0.39978
C         13.48736        23.38447         0.58470
C         12.17531        22.63746         0.43244
C         13.33595        24.72287         1.24090
C         12.06820        25.43949         1.04482
C         13.30097        27.66633         1.12750
C         12.04973        26.91204         0.87379
C         13.32574        28.99800         0.82883
C         12.11283        29.65082         0.17671
C         13.36245        31.84809         0.23782
C         12.07464        31.15614         0.30976
C         13.35857        33.37926         0.35216
C         12.06272        34.09832         0.24524
C         13.31070        36.22479        -0.35951
C         12.13112        35.47137        -0.18337
C         13.39593        37.22989        -1.40093
C         16.03650         6.36859        -1.94078
C         14.78452         5.62460        -1.48125
C         16.02866         7.73353        -1.28636
C         14.75045         8.50345        -1.57314
C         15.77387        10.35336        -0.21063
C         14.71958         9.84987        -0.88513
C         15.76262        11.76896         0.31073
C         14.63248        12.60845        -0.29789
C         15.76676        14.66226         0.44827
C         14.58103        13.97662         0.32789
C         15.78060        16.08240         0.64101
C         14.52900        16.79678         0.64047
C         15.78108        18.89191         1.04629
C         14.54847        18.23636         0.78421
C         15.76220        20.34497         1.49014
C         14.68334        21.14808         0.73785
C         15.81243        23.33910         1.40654
C         14.50442        22.55720         1.37167
C         15.83454        24.70503         1.56039
C         14.52832        25.42329         1.66693
C         15.80194        27.70644         1.83564
C         14.48200        26.95046         1.69369
C         15.76070        29.05819         1.15929
C         14.58574        29.72752         0.90425
C         15.75054        31.89639         0.76202
C         14.59198        31.15484         0.63938
C         15.76981        33.32560         0.91851
C         14.53949        33.97576         0.96081
C         15.78375        36.50799         0.00835
C         14.52403        36.01954         0.38543
C         15.84809        37.40307        -1.14799
C         14.59597        37.74442        -1.79939
C         18.40574         6.11590        -1.05547
C         17.30894         5.60134        -1.72327
C         18.28418         7.40867        -0.33251
C         17.06073         8.22156        -0.56032
C         18.25568        10.22920         0.52997
C         16.91998         9.47772         0.28035
C         18.29030        11.74155         0.58310
C         17.10061        12.47555         0.01200
C         18.28513        14.68548         0.10072
C         17.07846        13.90474         0.60337
C         18.26744        16.08707         0.66195
C         17.02309        16.77702         0.77981
C         18.26835        18.88471         1.43828
C         16.98821        18.18791         1.03958
C         18.26161        20.38426         1.19440
C         17.07933        21.07484         1.28807
C         18.33017        23.32631         1.21579
C         17.04309        22.56213         1.13229
C         18.34976        24.79890         1.42700
C         17.07375        25.50978         1.51666
C         18.35828        27.70762         1.55435
C         17.06253        26.89019         1.55236
C         18.19687        28.91454         0.55162
C         17.05725        29.76052         1.07123
C         18.22460        32.00005         0.41958
C         17.04788        31.23358         0.92102
C         18.25843        33.45274         0.72737
C         17.03463        33.99296         1.13859
C         18.28319        36.38122         0.02643
C         17.02194        36.06609         0.58849
C         18.25549        37.76036        -0.60612
C         17.05790        37.93744        -1.51949
C         20.85965         6.06791        -0.61255
C         19.65412         5.44121        -1.02594
C         20.85395         7.44830        -0.19672
C         19.57006         8.10473         0.10334
C         20.74767        10.27983         0.41158
C         19.55825         9.56022         0.34879
C         20.75021        11.72719         0.44946
C         19.57344        12.46385         0.42834
C         20.77209        14.61805         0.47830
C         19.57295        13.90722         0.34504
C         20.76388        16.06888         0.56122
C         19.50212        16.79940         0.68193
C         20.67317        18.95361         0.57112
C         19.48181        18.18831         0.87460
C         20.72303        20.40472         0.81564
C         19.52497        21.07589         1.04471
C         20.85695        23.25043         1.18771
C         19.57481        22.52347         1.36717
C         20.84542        24.74841         1.22563
C         19.55505        25.47667         1.33133
C         20.76495        27.59228         0.91107
C         19.60297        26.91282         1.23637
C         20.76662        29.04175         0.58043
C         19.48345        29.73008         0.34596
C         20.75375        31.99153         0.40063
C         19.48914        31.23572         0.25379
C         20.71922        33.41789         0.32949
C         19.45886        34.18270         0.42262
C         20.69948        36.07698        -0.62280
C         19.44681        35.57353         0.09288
C         20.74754        37.57395        -0.85005
C         19.57729        38.25175        -1.10710
C         23.31884         6.04939        -0.45246
C         22.09398         5.38947        -0.71704
C         23.29885         7.46085        -0.17505
C         22.05517         8.15904        -0.06754
C         23.22511        10.26238         0.44779
C         22.04244         9.58544         0.28022
C         23.21155        11.70730         0.90773
C         22.06201        12.44216         0.22622
C         23.23086        14.59058         0.77152
C         22.02725        13.91903         0.56735
C         23.24308        16.04914         0.77355
C         21.97871        16.74131         0.66192
C         23.21399        18.98064         0.82536
C         21.99226        18.19865         0.49461
C         23.21055        20.43832         0.56906
C         21.97243        21.08967         0.63064
C         23.18328        23.25711         0.08438
C         21.84709        22.54095         0.27481
C         23.20543        24.73549         0.15071
C         22.05308        25.47637         0.73228
C         23.17469        27.63477         0.33171
C         22.00489        26.94209         0.58974
C         23.24805        29.08078         0.41882
C         22.01628        29.82074         0.91669
C         23.19321        31.98440         0.51095
C         21.97031        31.28689         0.52108
C         23.19401        33.39497         0.39942
C         21.96448        34.10673         0.29099
C         23.16299        36.23004        -0.09480
C         21.98598        35.52365        -0.04321
C         23.21481        37.61054        -0.56177
C         22.00550        38.23296        -0.94235
C         25.77615         6.00590        -0.15199
C         24.55951         5.36925        -0.51330
C         25.71681         7.41853         0.18948
C         24.53474         8.13777         0.05736
C         25.77800        10.32827         0.45458
C         24.51521         9.64955        -0.03015
C         25.77378        11.76243         0.65203
C         24.51554        12.46783         0.72171
C         25.74949        14.59232         0.99919
C         24.48083        13.84778         0.84003
C         25.72343        16.08187         0.90136
C         24.43353        16.76405         0.74096
C         25.76485        18.97532         0.58879
C         24.50441        18.23558         0.85546
C         25.70972        20.43028         0.45232
C         24.45996        21.10676         0.43810
C         25.71108        23.30493         0.02938
C         24.47413        22.60776         0.55349
C         25.67658        24.74107        -0.12530
C         24.49284        25.44621         0.07879
C         25.65479        27.64069        -0.35179
C         24.38439        26.89687        -0.11364
C         25.76549        29.04893         0.18722
C         24.42749        29.75954         0.28150
C         25.74324        31.97317         0.25097
C         24.46616        31.22073         0.53452
C         25.63352        33.43365         0.09264
C         24.45449        34.10575         0.27324
C         25.69429        36.30627         0.01054
C         24.42865        35.61324         0.44865
C         25.69993        37.66324        -0.34515
C         24.43960        38.30265        -0.61211
C         28.16338         5.81257         0.64880
C         27.00595         5.31276        -0.18949
C         28.27437         7.37941         0.54373
C         26.97036         8.14297         0.48086
C         28.24634        10.27279         0.48146
C         26.96988         9.62194         0.39288
C         28.25673        11.71918         0.79314
C         26.98967        12.46284         0.74209
C         28.22670        14.62276         0.71320
C         27.03991        13.89270         0.79945
C         28.23012        16.13322         0.86937
C         26.93861        16.76227         0.31583
C         28.20430        18.96691         0.29023
C         26.94668        18.27558         0.47028
C         28.19748        20.45168         0.31786
C         26.91230        21.17218         0.26727
C         28.14561        23.26793        -0.40766
C         26.91455        22.57974        -0.03795
C         28.08590        24.67684        -0.95849
C         26.88714        25.47328        -0.47853
C         28.06877        27.59234        -1.04507
C         26.89713        26.84364        -0.52834
C         28.06464        29.09550        -1.03906
C         26.82810        29.83163        -0.56577
C         28.08615        31.93124        -0.66371
C         26.93640        31.27457        -0.30033
C         28.09965        33.41095        -0.65630
C         26.86126        34.16236        -0.30070
C         28.22732        36.26128        -0.22791
C         26.97897        35.56963         0.24379
C         28.20835        37.71158        -0.37585
C         26.94197        38.36574        -0.45277
C         30.61301         5.49090        -0.03704
C         29.51625         5.10868         0.65821
C         30.49543         7.61405        -0.71328
C         29.46217         8.14602         0.03451
C         30.60632        10.36758        -0.21957
C         29.42330         9.58501         0.21759
C         30.69206        11.82047         0.09603
C         29.53778        12.49674         0.75299
C         30.68318        14.63662         0.32780
C         29.50609        13.97033         0.59709
C         30.66442        16.06171        -0.07555
C         29.38998        16.80360         0.16018
C         30.60329        18.93572        -0.40165
C         29.39342        18.28397         0.16410
C         30.57483        20.39822        -0.69003
C         29.44285        21.18525        -0.10006
C         30.61804        23.30444        -0.66518
C         29.35768        22.61620        -0.45901
C         30.61257        24.75398        -0.67454
C         29.38946        25.43122        -0.78263
C         30.61631        27.67558        -1.00431
C         29.40593        26.86479        -1.09423
C         30.60127        29.08781        -1.15377
C         29.34989        29.82021        -1.10228
C         30.53632        31.97086        -1.12239
C         29.31961        31.22468        -0.99184
C         30.56110        33.40381        -0.91297
C         29.39240        34.10978        -0.58211
C         30.70497        36.25435        -0.21861
C         29.39527        35.52917        -0.40818
C         30.70475        37.66008        -0.82294
C         29.40900        38.39513        -0.57824
C         33.03076         6.17723         0.12690
C         32.00468         5.33251         0.38900
C         33.09525         7.36335        -0.83115
C         31.83390         8.24314        -0.86480
C         33.13430        10.26394         0.16541
C         31.89687         9.68115        -0.52681
C         33.17553        11.78681        -0.11751
C         31.99808        12.48658         0.09801
C         33.06517        14.63043        -0.40918
C         32.02596        13.94864         0.44951
C         33.11890        16.10520        -0.29389
C         31.94076        16.81848        -0.20428
C         33.09708        18.99430        -0.50254
C         31.91862        18.25395        -0.34767
C         33.12793        20.41965        -0.72733
C         31.84842        21.14242        -1.11126
C         33.06524        23.30312        -0.75494
C         31.82508        22.60476        -0.73569
C         33.05648        24.73548        -0.79064
C         31.84516        25.46845        -0.72498
C         33.07013        27.60253        -1.18724
C         31.86991        26.98114        -0.53858
C         33.15285        29.07169        -1.59208
C         31.82253        29.82769        -1.33180
C         32.84447        32.06976        -1.81789
C         31.73742        31.23662        -1.43275
C         32.86784        33.42210        -1.64342
C         31.80251        34.15864        -1.04417
C         33.19326        36.19701        -0.43859
C         31.93902        35.49648        -0.66706
C         33.08907        37.63131        -0.13961
C         31.96157        38.34857        -0.33298
C         34.35198         8.21389        -0.60080
C         35.60991        10.31083        -0.10292
C         34.39552         9.54359        -0.27361
C         35.64365        11.71027        -0.09566
C         34.41503        12.44244        -0.33134
C         35.49863        14.69992        -1.04935
C         34.30485        13.85887        -0.79052
C         35.60906        16.01989        -0.76098
C         34.41335        16.78481        -0.32495
C         35.59808        18.96728        -1.03355
C         34.39112        18.28852        -0.38646
C         35.60611        20.45207        -0.65067
C         34.32876        21.14392        -0.73310
C         35.52246        23.34139        -0.67441
C         34.31260        22.60370        -0.74954
C         35.54670        24.77477        -0.71369
C         34.29744        25.43428        -0.93357
C         35.84616        27.76175        -0.62306
C         34.16444        26.80283        -1.37021
C         35.27382        28.97764         0.05198
C         34.37227        29.75174        -0.87577
C         35.61117        31.86445        -0.34081
C         34.72787        31.02867        -1.18000
C         35.53606        33.31107        -0.18207
C         34.74434        34.27531        -0.78664
C         34.44751        35.59714        -0.28807
C         36.87411        12.42106         0.30764
C         38.13707        14.63705         0.35178
C         37.25257        13.63359        -0.20667
C         38.03667        16.00434         0.14227
C         36.94157        16.69585        -0.62653
C         37.78840        18.97638         0.29881
C         36.90350        18.20169        -0.65615
C         38.03655        20.39335        -0.20811
C         36.78701        21.14015        -0.52724
C         38.04046        23.38566        -0.13004
C         36.80378        22.61628        -0.61761
C         37.82885        24.78444         0.28407
C         36.74060        25.48830        -0.23489
C         37.50664        27.53946         1.09069
C         36.66474        26.91510         0.07401
C         37.42169        28.98369         1.25591
C         36.43848        29.74323         0.64190
C         36.42713        31.17346         0.55879
C         39.06719        16.85389         0.69929
C         40.07652        19.00540         1.33377
C         39.03981        18.23006         0.70289
C         40.11546        20.38101         1.28547
C         39.22863        21.12555         0.35068
C         40.09532        23.31378         1.42598
C         39.23206        22.63169         0.40292
C         39.73549        24.67528         1.85516
C         38.71725        25.39934         1.26463
C         38.49882        26.77247         1.66366
C         40.98156        21.12336         2.18006
C         40.94076        22.47208         2.30149
O         25.39890        31.54783         1.64712
O         30.28298        11.35669        -1.25811
O         11.37452        23.27033        -0.63494
O         27.01349        29.53738        -1.97869
O         36.64418        13.99733        -1.42981
O         18.68921        31.66126        -0.91926
O         29.07540        11.98878         2.03026
O         29.18224        20.95592         1.32167
O         12.09440        26.01381        -0.32721
O         14.72033         8.75370        -2.97986
O         34.06530        31.56802        -2.30611
O         20.49143        22.73582         2.50061
O         20.27327        29.21381        -0.79424
O         32.95276        10.10707         1.52383
O         14.23476        26.19548         2.91998
O         30.41402         6.30285        -1.17474
O         37.80726        23.15377        -1.54509
O         18.16158        10.98617         1.80527
O         35.37522        18.93744        -2.40212
O         39.21229        20.58443        -1.01947
O         27.20497        34.01086        -1.70592
O         30.19272        19.46846        -1.75155
O          7.83104        25.34393        -0.72958
O         28.57376        27.11477        -2.31061
O         25.83485        15.45929         2.22592
O         21.88386        25.17875         2.17473
O         37.49046        17.47577        -1.74651
O         34.66711        17.63978         0.88931
O          6.04442        20.54225         0.54282
O         17.32663        30.61619         2.23846
O         29.68380        16.28415        -1.18042
O         21.31928        18.61417        -0.72350
O         17.72626        23.02020        -0.09586
O         14.40916        35.23725         1.56300
O         13.61435        32.70074        -0.93370
O         16.99220        35.26114         1.74592
O         33.19424        14.08537        -1.74532
O         24.76273        27.41295        -1.47348
O         18.71592         7.34762         1.06351
O         23.12654        24.00445        -1.16247
O         31.99692         9.27344        -1.91877
O         10.98427        19.76809        -1.20347
O          8.75224        22.94952         1.88865
O         35.34557        27.38842        -1.87298
O         34.07336        34.03675        -2.00403
O         27.69748         7.90601         1.77543
O         23.81366        18.65867         2.11693
O         40.49481        23.23255        -0.01002
O         11.64507        16.72481         2.17164
H         11.54452        15.76437         2.36818
O         17.78136        28.38955        -0.71754
H         18.56306        28.42230        -1.31798
O         15.22567        21.27302        -0.59085
H         14.80805        22.05038        -1.03733
O         18.33180        18.75961         2.91316
H         18.44836        17.80778         3.12444
O         33.38122        29.08134        -3.01134
H         33.64589        29.99609        -3.26563
O         18.15060        14.88694        -1.33536
H         18.89219        15.45450        -1.63387
O         12.67414        14.09845         1.79430
H         13.32650        14.28434         2.50462
O         15.56947        11.73931         1.74750
H         15.91408        10.86770         2.06846
O         18.57575        28.24314         2.87365
H         17.69981        28.49377         3.26048
O         37.00300        19.15292         1.52014
H         36.32165        18.43910         1.57508
O         28.35785        16.45897         2.26677
H         27.56856        16.08170         2.72726
O         13.47146        11.00696        -2.56519
H         13.91248        10.24214        -3.04826
O         24.45302        22.87880         2.00301
H         25.16379        22.34952         2.42403
O         15.48992        20.31394         2.92197
H         16.24582        19.84900         3.34789
O          9.30511        26.97389         2.59485
H          9.26919        27.91540         2.86706
O         13.99946        23.64576        -0.75008
H         13.25504        24.05058        -1.25560
O         26.84903        16.48472        -1.10338
H         27.73028        16.62669        -1.51899
O         27.64484         5.47700         1.96854
H         27.29325         6.31484         2.36537
O         30.80424        36.44027         1.22992
H         30.81137        35.55359         1.64710
O         22.09711        29.80711         2.36914
H         22.91678        30.27257         2.63954
O         27.88244        24.49883        -2.39955
H         27.93852        25.39545        -2.81160
O         15.90564        28.07010         3.25780
H         15.47495        27.33718         3.76220
O         31.95918        27.20358         0.92479
H         32.86080        27.56457         1.12197
O         22.35007        12.36242        -1.20981
H         21.59875        12.76714        -1.69373
O         21.14593        22.53841        -1.00414
H         21.68872        23.05026        -1.65124
O         13.07782        11.31560         1.07022
H         12.90405        12.08987         1.65550
O         15.95465         6.51849        -3.37499
H         15.41666         7.36123        -3.53381
O         17.40618        12.45242        -1.38839
H         16.64241        12.83598        -1.88660
O         33.23953         6.80302        -2.15697
H         33.07277         7.53163        -2.79463
O         13.93600        22.44093         2.68529
H         14.45609        21.76818         3.18912
O         17.26685        13.79380         2.03339
H         16.68595        13.04948         2.33950
O          7.76342        15.95024         1.21517
H          6.80755        15.74090         1.14620
O         24.38596        35.80403         1.90929
H         25.24626        35.46186         2.25500
O         10.77972        24.54148         2.82576
H          9.90812        24.15419         3.06815
O         27.13536        35.40227         1.71081
H         27.42494        36.26884         2.07057
O         22.93990        11.71607         2.33287
H         23.70235        11.31395         2.79831
O         17.97046        38.67964         0.52448
H         17.86389        39.58211         0.15568
O         30.80699        37.51326        -2.26920
H         30.84551        38.40737        -2.66744
O         24.50084         9.91913        -1.48650
H         24.03838        10.77684        -1.62719
O         20.60687        35.49616        -1.96908
H         21.40740        35.76451        -2.46750
O         31.86135        21.18195        -2.56571
H         31.49438        20.32121        -2.87820
O         12.28776        29.39966        -1.25450
H         11.55227        29.84088        -1.72934
O         34.48146        28.47103         1.19357
H         34.45326        29.17885         1.87194
O         32.48124        14.09254         1.82659
H         31.92108        13.52744         2.40071
O         26.25813        28.91706         1.55146
H         26.13759        29.80064         1.98239
O         12.79154        14.62141        -1.82316
H         12.16721        14.39645        -2.54617
O         14.91605        12.88480        -1.69300
H         14.20701        13.49535        -2.02279
O         16.49002         9.02020         1.60080
H         17.20492         8.42758         1.93643
H          5.75929        18.78654        -2.31538
H          3.90427        21.04184        -1.94202
H          3.96919        23.26889        -1.16673
H          4.63256        25.07256        -0.05610
H          7.51647        14.17449        -0.89787
H          6.43433        16.50360        -1.41197
H          6.06695        27.46993         1.16259
H          7.38913        29.59422         0.24029
H         10.03346         9.93048        -0.87402
H          8.79706        12.15066        -1.23461
H          8.68967        31.71720         0.21000
H          9.93589        33.83389         0.05039
H         12.72885         5.67542        -0.94539
H         11.38716         7.74980        -0.84788
H         11.22047        35.86911        -0.66315
H         12.47574        37.50827        -1.93569
H         14.81482         4.52413        -1.47389
H         14.63083        38.45540        -2.63795
H         17.43485         4.67876        -2.31215
H         17.11180        38.66330        -2.34555
H         19.71104         4.42412        -1.44261
H         19.63129        39.31989        -1.38017
H         22.10322         4.32982        -1.01114
H         22.02164        39.29457        -1.23476
H         24.57420         4.30515        -0.79131
H         24.44022        39.35647        -0.92872
H         26.99026         4.25126        -0.48314
H         26.91879        39.44360        -0.67091
H         29.67032         4.46511         1.53761
H         29.37659        39.47274        -0.81027
H         33.98740         5.94467         0.62270
H         32.18866         4.52430         1.11560
H         34.01080        38.14094         0.18314
H         31.95839        39.43720        -0.16789
H         35.29577         7.70066        -0.85392
H         36.55962         9.76744         0.03044
H         36.09345        33.67239         0.69915
H         35.23811        36.17628         0.21721
H         37.41848        12.00126         1.16765
H         38.92498        14.28699         1.03897
H         38.25481        29.49050         1.76720
H         37.10776        31.74241         1.21121
H         39.95036        16.34970         1.12447
H         40.82109        18.47233         1.94658
H         40.33308        25.14006         2.65394
H         39.19541        27.21789         2.38967
H         41.64067        20.53895         2.83992
H         41.56539        22.97766         3.05293
