         404
 CSIRO Nanostructure Databank - Neutral Graphene Oxide Data Set
C          1.40619         1.67103         1.31027
C          1.54492         2.75245         2.20157
C          2.47260         1.31798         0.50862
C          2.70841         3.51499         2.18404
C          1.75910         6.53048         3.23456
C          1.68735         7.89043         2.94994
C          2.83165         5.77234         2.76584
C          2.74090         8.52773         2.27386
C          1.54543        10.71651         2.34705
C          1.50567        12.09897         2.19987
C          2.69838         9.96589         2.04672
C          2.62957        12.82601         1.76756
C          1.45727        15.03676         1.97601
C          1.46272        16.42179         1.90910
C          2.60684        14.27157         1.65389
C          2.62647        17.12873         1.53197
C          2.66463        18.56164         1.49370
C          3.68815         2.06252         0.53384
C          3.78596         3.27695         1.29506
C          4.83637         1.51391        -0.08081
C          4.98715         4.09812         1.21449
C          3.90319         6.32643         2.01135
C          3.87841         7.75867         1.86410
C          5.02882         5.54455         1.52232
C          5.01058         8.45030         1.32376
C          3.84353        10.64563         1.52815
C          3.81833        12.09469         1.42308
C          4.99599         9.88939         1.18001
C          4.94865        12.79684         0.96062
C          3.78053        14.96277         1.23144
C          3.79801        16.39185         1.18862
C          4.96046        14.22788         0.88565
C          4.98516        17.09268         0.81750
C          3.81023        19.23599         1.16027
C          5.01843        18.53731         0.82145
C          6.07339         2.14699         0.06314
C          6.10674         3.47202         0.62409
C          7.28561         1.44699        -0.27129
C          7.42515         4.12006         0.65100
C          6.18279         6.29406         1.15363
C          6.16875         7.70590         1.01745
C          7.45892         5.59115         0.92162
C          7.33862         8.39828         0.34058
C          6.18406        10.56871         0.73636
C          6.10384        12.01873         0.48455
C          7.38777         9.89520         0.53573
C          7.39978        12.75263         0.17664
C          6.13580        14.95041         0.52795
C          6.14657        16.35646         0.48653
C          7.42266        14.21410         0.46440
C          7.35392        17.10488         0.05484
C          6.20381        19.23884         0.55259
C          7.41712        18.57251         0.22360
C          8.53722         2.06354        -0.27507
C          8.52647         3.57056        -0.23280
C          9.75306         1.37922        -0.46408
C          9.86863         4.20157         0.02857
C          8.69261         6.33794         0.58771
C          8.65566         7.70614         0.57148
C          9.91792         5.58703         0.34374
C          9.89435         8.48336         0.64098
C          8.63392        10.61382         0.34594
C          8.65673        12.00646         0.23989
C          9.89917         9.92395         0.38152
C          9.92865        12.72253         0.02989
C          8.70466        14.94340         0.30528
C          8.67085        16.38416        -0.05121
C          9.95915        14.21911        -0.06301
C          9.94219        17.11400        -0.01270
C          8.63600        19.22350         0.03973
C          9.89617        18.53540        -0.10296
C         11.00548         2.05426        -0.49755
C         11.04203         3.49342        -0.27376
C         12.21343         1.36768        -0.69670
C         12.29063         4.18299        -0.37337
C         11.14386         6.26793         0.20750
C         11.21101         7.70135         0.48559
C         12.32150         5.59713        -0.20962
C         12.38515         8.44807         0.03975
C         11.13965        10.60400         0.30368
C         11.20626        12.03565         0.23557
C         12.35588         9.85237         0.11366
C         12.42598        12.76073         0.33238
C         11.22904        14.95442         0.14679
C         11.17044        16.40373         0.05801
C         12.43054        14.25357         0.32824
C         12.37571        17.14639        -0.08774
C         11.11087        19.24458        -0.25005
C         12.34919        18.56990        -0.28546
C         13.46907         2.04097        -0.76260
C         13.49487         3.48043        -0.66056
C         14.68468         1.35161        -0.91110
C         14.71251         4.19160        -0.83060
C         13.53950         6.32008        -0.43844
C         13.55228         7.75257        -0.35815
C         14.72589         5.62223        -0.76591
C         14.74464         8.48223        -0.65010
C         13.56749        10.56582        -0.07941
C         13.61047        11.94843         0.28197
C         14.74149         9.88326        -0.50192
C         14.93394        12.41711         0.56051
C         13.63886        15.07441         0.33252
C         13.61781        16.45771        -0.03445
C         14.92400        14.57272         0.60997
C         14.84504        17.17596        -0.19807
C         13.58088        19.26066        -0.50322
C         14.81392        18.59812        -0.48438
C         15.92570         2.03975        -1.01216
C         15.93530         3.48308        -1.04141
C         17.15116         1.34807        -1.06610
C         17.14677         4.18885        -1.24400
C         15.94506         6.34267        -1.00908
C         15.96054         7.76702        -0.97038
C         17.14966         5.63461        -1.27908
C         17.18347         8.45368        -1.15856
C         15.97263        10.65933        -0.73786
C         16.07249        11.94432        -0.03599
C         17.25246         9.92851        -1.05036
C         17.27859        12.78135        -0.31517
C         16.11650        15.12537         0.12092
C         16.07767        16.49461        -0.18929
C         17.30343        14.29213        -0.25092
C         17.37736        17.24364        -0.13751
C         16.04194        19.26622        -0.78909
C         17.28866        18.62467        -0.74138
C         18.38201         2.03942        -1.18557
C         18.37741         3.47118        -1.33538
C         19.62195         1.36321        -1.16967
C         19.59640         4.15543        -1.58157
C         18.33990         6.35135        -1.57622
C         18.36681         7.75851        -1.47763
C         19.54232         5.57982        -1.96193
C         19.58609         8.55759        -1.79832
C         18.56346        10.49341        -0.50711
C         18.58918        12.02810        -0.35752
C         19.73969         9.93027        -1.28182
C         19.82380        12.80081        -0.68778
C         18.59358        15.01728        -0.46413
C         18.57789        16.42643        -0.57243
C         19.76178        14.29245        -0.80844
C         19.75458        17.12734        -0.90570
C         18.49600        19.27578        -1.03712
C         19.74276        18.58463        -1.02419
C         20.84025         2.06060        -1.30709
C         20.82916         3.47874        -1.56753
C         22.08139         1.39384        -1.16104
C         22.08069         4.18470        -1.73995
C         20.85092         6.30757        -2.23467
C         20.85631         7.80807        -2.20713
C         22.10956         5.58879        -1.97284
C         22.14285         8.50908        -2.06095
C         20.95081        10.61530        -1.42758
C         21.02455        12.06186        -1.18129
C         22.13446         9.91138        -1.87153
C         22.16880        12.78005        -1.43068
C         20.92753        14.99530        -1.16377
C         20.95100        16.41376        -1.16680
C         22.12091        14.24992        -1.60684
C         22.20720        17.13098        -1.27533
C         20.95218        19.26664        -1.15703
C         22.21212        18.58633        -1.16102
C         23.29912         2.08151        -1.28975
C         23.29900         3.46603        -1.62379
C         24.53104         1.41928        -0.93936
C         24.57641         4.14437        -1.89463
C         23.34365         6.31752        -1.99410
C         23.34135         7.74690        -2.10531
C         24.58918         5.62838        -1.91956
C         24.60605         8.43053        -2.43509
C         23.43499        10.60437        -1.82913
C         23.46961        12.11253        -1.60598
C         24.61712         9.94578        -2.45952
C         24.68312        12.88749        -1.89526
C         23.41525        15.01491        -1.81283
C         23.39438        16.44682        -1.47682
C         24.70714        14.27154        -1.81359
C         24.67948        17.11077        -1.25359
C         23.40692        19.29756        -1.15440
C         24.69478        18.62571        -1.04026
C         25.77028         2.00565        -1.04438
C         25.86350         3.34546        -1.70860
C         26.90233         1.39983        -0.34500
C         27.10227         4.17645        -1.50154
C         25.81650         6.36569        -1.89930
C         25.87128         7.71780        -2.21645
C         27.07985         5.66916        -1.56153
C         27.16608         8.43554        -2.29649
C         25.91979        10.71472        -2.50534
C         25.94071        12.18123        -2.22096
C         27.21287         9.95014        -2.43086
C         27.23600        12.86314        -1.97295
C         25.95191        14.97091        -1.81360
C         25.91987        16.44680        -1.76545
C         27.20448        14.29643        -1.85746
C         27.20418        17.21709        -1.64382
C         25.97789        19.33657        -1.16468
C         27.18020        18.64911        -1.23470
C         28.20440         1.58283        -0.73524
C         28.42554         3.54552        -1.68636
C         29.45039         1.34257        -0.06112
C         29.59380         4.14501        -1.36966
C         28.37316         6.38376        -1.66895
C         28.39919         7.75596        -1.82042
C         29.68370         5.62596        -1.65632
C         29.61154         8.52763        -1.64664
C         28.43439        10.67836        -2.01979
C         28.42196        12.10274        -1.93143
C         29.62636         9.92862        -1.77213
C         29.72285        12.82095        -1.88712
C         28.42434        15.04572        -1.70097
C         28.44762        16.43536        -1.50489
C         29.71496        14.33625        -1.77612
C         29.65867        17.12496        -1.21391
C         28.43231        19.28417        -1.05054
C         29.64392        18.56032        -1.03193
C         30.63344         2.04239        -0.29171
C         30.85479         3.31389        -1.15286
C         31.81692         1.46016         0.25791
C         31.99328         4.17295        -0.58495
C         30.73754         6.32946        -0.84984
C         30.76067         7.83170        -1.00242
C         31.98582         5.58241        -0.58087
C         32.05143         8.48722        -0.80777
C         30.92531        10.65020        -1.63922
C         30.94929        12.11101        -1.48356
C         32.17942         9.89546        -1.19083
C         32.11132        12.80005        -1.12509
C         30.93041        14.99651        -1.27017
C         30.88402        16.40506        -1.06695
C         32.11081        14.25570        -1.03996
C         32.09560        17.10271        -0.77793
C         30.86155        19.23600        -0.78117
C         32.08192        18.55152        -0.66144
C         33.05521         2.08765         0.25403
C         33.13947         3.50162        -0.08388
C         34.22082         1.40291         0.72127
C         34.31664         4.21445         0.22501
C         33.13690         6.33293        -0.20159
C         33.15684         7.78288        -0.30839
C         34.33029         5.63848         0.14022
C         34.37939         8.49840        -0.03757
C         33.30865        10.66818        -0.65089
C         33.30130        12.07869        -0.69000
C         34.41774         9.94035        -0.13259
C         34.44520        12.80259        -0.20518
C         33.30913        14.95488        -0.67248
C         33.28951        16.38027        -0.63254
C         34.47959        14.22459        -0.26341
C         34.54617        17.13027        -0.45822
C         33.27578        19.25690        -0.38397
C         34.50536        18.59093        -0.22574
C         35.41203         2.06616         0.94437
C         35.48517         3.50854         0.73063
C         36.61955         1.35857         1.29708
C         36.65064         4.18012         1.00291
C         35.53258         6.36863         0.40927
C         35.54388         7.75957         0.32765
C         36.83283         5.60663         0.56917
C         36.86562         8.49409         0.39319
C         35.54411        10.67689         0.33542
C         35.56712        12.08442         0.33254
C         36.68574         9.92468         0.88224
C         36.70616        12.80920         0.88220
C         35.63767        14.91477         0.23767
C         35.75930        16.37062         0.02092
C         36.68508        14.24149         0.85474
C         36.84633        17.12522         0.66972
C         35.67785        19.25626         0.14289
C         36.84932        18.56074         0.57925
C         37.77847         2.02385         1.61461
C         37.71670         3.51652         1.84050
C         39.01504         1.33645         1.88303
C         39.05889         4.20807         1.83462
C         37.85563         6.33101         1.43119
C         37.90251         7.80382         1.26371
C         39.10995         5.60706         1.76670
C         39.22269         8.49262         1.39897
C         37.87555        10.68259         1.39802
C         37.85696        12.15202         1.35826
C         39.20701        10.00087         1.44515
C         39.04341        12.85838         1.79721
C         37.69966        14.99396         1.69125
C         37.86701        16.44876         1.32447
C         39.01387        14.27516         1.88378
C         39.00085        17.16194         1.80743
C         37.94820        19.26702         1.09384
C         39.03583        18.58883         1.68593
C         40.17202         2.01640         2.13348
C         40.22944         3.46218         2.10079
C         41.44155         4.15512         2.31528
C         40.32125         6.30716         2.02820
C         40.36800         7.76730         1.98230
C         41.47885         5.54219         2.30644
C         41.44201         8.52481         2.41450
C         40.33324        10.70691         2.06923
C         40.23290        12.15412         2.18542
C         41.42715         9.95023         2.45585
C         41.33675        12.90353         2.64170
C         40.13631        15.00100         2.33656
C         40.11497        16.46889         2.37745
C         41.29938        14.28664         2.70148
C         41.18169        17.21368         2.88317
C         40.15275        19.30334         2.20779
C         41.19021        18.62249         2.81072
O         27.40299         9.08383        -3.59729
O         29.92961        13.66423        -3.07243
O         27.02451         4.94462        -0.24835
O          7.86742        16.65033        -1.25162
O          2.84712         4.45466         3.21121
O         15.04579        13.47329         1.45709
O         24.78884        17.64566         0.09905
O          6.49608        12.37585        -0.90064
O         35.59781        16.72480        -1.40097
O         20.04103         5.78286        -3.33303
O         25.88851        11.65229        -3.63090
O          7.79569         4.59011         1.97173
O         31.91211        10.16054        -2.61658
O         16.56731        10.65041        -2.09811
O         28.39654         2.18394        -2.00192
O         23.75925        11.13781        -0.50083
O         24.41040         9.22611        -3.68906
O         22.56685        14.65067        -2.95528
O          8.25534        14.57607         1.65192
O         37.34899         7.22153         2.47730
O         39.56278         9.28778         0.21457
O         26.52310        17.05952        -2.95176
O         19.49561        12.40027         0.72711
O          9.89997        13.46243        -1.30171
O         10.72441         8.10841         1.80225
O         36.88267        10.09670         2.32382
O         17.02447        13.56261        -1.53514
O         19.99783         8.41972        -3.20302
O         25.30975         3.48407        -3.03593
O         30.28342         7.13726         0.25593
O         37.08782        15.03023         3.03919
H         37.03209        14.10418         3.35940
O          7.09500         8.22729        -1.10951
H          6.36167         8.82870        -1.36190
O         17.58513        17.47541         1.30610
H         18.36385        18.06571         1.39583
O         37.43000         5.55789        -0.77087
H         37.52218         6.48981        -1.08894
O         18.65139         9.94608         0.83881
H         19.27014        10.53203         1.33588
O         31.32365         2.83481        -2.44130
H         30.60455         2.28267        -2.81838
O         37.37624         8.49069        -0.96863
H         36.73494         8.96027        -1.54305
O          8.15105         4.00675        -1.58389
H          8.79524         3.62100        -2.21440
O         37.24496         3.67622         3.23254
H         36.39254         3.19661         3.31124
O         30.20635         5.69939        -3.02640
H         29.61451         5.19263        -3.62126
H          0.48046         1.07997         1.30310
H          0.75785         2.98328         2.93059
H          2.42004         0.42153        -0.12494
H          0.97889         6.04133         3.83125
H          0.82047         8.45742         3.31020
H          0.63697        10.21615         2.70585
H          0.57087        12.61937         2.44642
H          0.53418        14.53344         2.29335
H          0.55327        16.98353         2.16719
H          1.75198        19.11862         1.75189
H          4.76889         0.53451        -0.57619
H          3.82075        20.33576         1.15295
H          7.21168         0.36852        -0.48011
H          6.20025        20.33738         0.61996
H          9.73856         0.28375        -0.57245
H          8.65971        20.32293         0.09170
H         12.19398         0.27380        -0.81562
H         11.08941        20.34018        -0.34747
H         14.68289         0.25170        -0.93970
H         13.55152        20.34247        -0.70294
H         17.15655         0.24982        -1.00127
H         15.99921        20.31910        -1.10941
H         19.64068         0.27299        -1.02368
H         18.48757        20.34440        -1.30150
H         22.08960         0.32249        -0.91230
H         20.94774        20.36602        -1.20208
H         24.45179         0.42286        -0.47903
H         23.38831        20.39360        -1.24702
H         26.68502         0.81194         0.55936
H         25.98474        20.42784        -1.02213
H         29.48848         0.52207         0.67477
H         28.45739        20.36424        -0.84310
H         31.74131         0.45053         0.69149
H         30.84773        20.32953        -0.66312
H         34.15703         0.31962         0.90352
H         33.23343        20.34895        -0.25722
H         36.61116         0.25852         1.25031
H         35.66232        20.35331         0.22960
H         39.01451         0.23619         1.85941
H         37.95437        20.36636         1.05340
H         41.10262         1.46488         2.33275
H         42.35960         3.58466         2.51740
H         42.43424         6.04930         2.49882
H         42.33442         8.02521         2.81739
H         42.31388        10.44241         2.87913
H         42.25918        12.38843         2.94064
H         42.19436        14.82177         3.04433
H         42.04325        16.71407         3.34592
H         40.17285        20.39970         2.12938
H         42.04630        19.17450         3.22310
