         404
 CSIRO Nanostructure Databank - Neutral Graphene Oxide Data Set
C          1.50391         2.56353        -1.60268
C          1.45478         3.89921        -1.19637
C          2.67017         1.82749        -1.43629
C          2.56427         4.51990        -0.58575
C          1.40163         6.74169        -0.39870
C          1.37216         8.06860         0.00838
C          2.50464         5.88900        -0.12540
C          2.39410         8.57223         0.84843
C          1.30121        10.67251         1.51524
C          1.36423        11.95067         2.03927
C          2.49830         9.97620         1.26927
C          2.59598        12.63163         2.14285
C          2.88004        15.69603         4.02909
C          3.34876        17.04486         4.20454
C          3.13248        14.88287         2.93891
C          3.49412        17.87155         3.12610
C          4.24055        19.11425         3.05085
C          3.81668         2.41979        -0.85377
C          3.77136         3.77981        -0.38696
C          5.01678         1.67998        -0.75746
C          4.92968         4.38095         0.20301
C          3.59276         6.39440         0.64296
C          3.36977         7.64978         1.25369
C          4.86717         5.70060         0.73454
C          5.16019         8.65954         1.44096
C          3.74495        10.68829         1.33512
C          3.80056        12.10423         1.60589
C          4.98593         9.99059         1.09252
C          5.05367        12.86454         1.36003
C          4.06257        15.19177         1.85258
C          4.08537        16.56109         1.48696
C          5.10831        14.33960         1.36473
C          5.13821        17.21211         0.85598
C          4.93358        19.49429         1.95429
C          5.04730        18.71642         0.63148
C          6.19767         2.26396        -0.28083
C          6.18907         3.64371         0.20070
C          7.40310         1.53932        -0.32200
C          7.36452         4.21632         0.64202
C          6.10850         6.39787         1.00227
C          6.21803         7.79111         1.04710
C          7.38823         5.60208         1.22896
C          7.40702         8.44790         0.39504
C          6.11502        10.72114         0.44494
C          6.17758        12.17513         0.88899
C          7.41858         9.95400         0.57862
C          7.43738        12.84159         0.64762
C          6.25056        15.01018         0.79684
C          6.28172        16.43185         0.56267
C          7.46502        14.28526         0.54752
C          7.44576        17.08575         0.04636
C          6.25036        19.24696        -0.08203
C          7.41564        18.50724        -0.25490
C          8.62594         2.08653         0.11562
C          8.60843         3.42320         0.76270
C          9.81847         1.40736        -0.11982
C          9.94011         4.10901         1.08768
C          8.70469         6.32084         0.91747
C          8.69784         7.72521         0.70250
C          9.93634         5.62865         1.03954
C          9.88733         8.44746         0.57784
C          8.58717        10.64541         0.46845
C          8.60211        12.09248         0.43890
C          9.87613         9.91895         0.55669
C          9.90232        12.75627         0.25542
C          8.63716        14.96108         0.15084
C          8.63631        16.35612        -0.15767
C          9.91742        14.25334         0.06177
C          9.82832        17.00813        -0.62179
C          8.60179        19.13420        -0.72683
C          9.81069        18.42015        -0.87906
C         11.08775         1.99188         0.16247
C         11.15816         3.28716         0.76824
C         12.28214         1.29548        -0.13990
C         12.44903         3.72201         1.09931
C         11.14376         6.39390         0.88339
C         11.13142         7.77604         0.55551
C         12.45539         5.87057         1.10632
C         12.36155         8.44573         0.18746
C         11.14626        10.61874         0.19709
C         10.98748        11.97150        -0.45058
C         12.35825         9.83691        -0.10074
C         12.29603        12.69978        -0.58781
C         11.06674        14.86640        -0.61881
C         11.03339        16.27108        -0.87164
C         12.26852        14.11064        -0.80482
C         12.19809        16.94354        -1.31064
C         11.01121        19.07917        -1.25116
C         12.21653        18.36541        -1.43012
C         13.55998         1.89261        -0.00646
C         13.63482         3.20771         0.55793
C         14.76870         1.19392        -0.26289
C         14.88549         3.99527         0.49379
C         13.60609         6.36034         0.49527
C         13.56817         7.71289         0.02225
C         14.85239         5.55337         0.41276
C         14.76894         8.38942        -0.39287
C         13.51622        10.52074        -0.50321
C         13.48659        11.96400        -0.70264
C         14.74382         9.80050        -0.63530
C         14.71160        12.64526        -0.98527
C         13.46562        14.76459        -1.19277
C         13.40575        16.16319        -1.74471
C         14.68556        14.05775        -1.22259
C         14.69982        16.91580        -1.60003
C         13.45271        19.03897        -1.67048
C         14.68837        18.34741        -1.67599
C         16.02587         1.84885        -0.18788
C         16.07287         3.27992        -0.03571
C         17.24111         1.14590        -0.33182
C         17.26015         3.96366        -0.33218
C         15.94138         6.18870        -0.41483
C         15.97704         7.66749        -0.55213
C         17.18943         5.40151        -0.68401
C         17.17156         8.30557        -0.98391
C         15.95138        10.48836        -0.94746
C         15.93529        11.91760        -1.08766
C         17.17093         9.75884        -1.12327
C         17.15096        12.62763        -1.30536
C         15.91699        14.76853        -1.43948
C         15.91215        16.20529        -1.56364
C         17.13841        14.05825        -1.42774
C         17.16095        16.91262        -1.62489
C         15.92603        19.04293        -1.72227
C         17.16038        18.36277        -1.69579
C         18.47714         1.82918        -0.41205
C         18.47544         3.26153        -0.53500
C         19.71217         1.14082        -0.42667
C         19.68991         3.96122        -0.87516
C         18.43915         6.13129        -0.97677
C         18.36376         7.54440        -1.18897
C         19.62555         5.39109        -1.12024
C         19.59247         8.24483        -1.59658
C         18.36024        10.48543        -1.36668
C         18.37849        11.90990        -1.39557
C         19.61004         9.77094        -1.66654
C         19.61491        12.63121        -1.54380
C         18.37375        14.76980        -1.54267
C         18.37385        16.20167        -1.62410
C         19.59136        14.04016        -1.59092
C         19.62926        16.92925        -1.60583
C         18.38709        19.06700        -1.75422
C         19.64024        18.39410        -1.73977
C         20.92519         1.83485        -0.61300
C         20.90245         3.24297        -0.91155
C         22.16597         1.14692        -0.49370
C         22.19551         3.80590        -1.47978
C         20.86321         6.10314        -1.48654
C         20.86542         7.55643        -1.41105
C         22.19035         5.33229        -1.57962
C         22.09652         8.29973        -1.25766
C         20.89218        10.48690        -1.50936
C         20.87873        11.91002        -1.51119
C         22.11155         9.78102        -1.41439
C         22.10560        12.60278        -1.41310
C         20.84258        14.80600        -1.72495
C         20.81884        16.25825        -1.49441
C         22.14826        14.06021        -1.60811
C         22.06161        17.06063        -1.15396
C         20.84477        19.03745        -2.00234
C         22.13596        18.24044        -2.17090
C         23.41534         1.81748        -0.51561
C         23.44332         3.22344        -0.83816
C         24.62586         1.14422        -0.24363
C         24.64206         3.91791        -0.79401
C         23.42712         6.06717        -1.38619
C         23.40858         7.51267        -1.19466
C         24.68835         5.34124        -1.22073
C         24.69261         8.27485        -1.33861
C         23.32694        10.48565        -1.28023
C         23.32714        11.90486        -1.23649
C         24.63140         9.78899        -1.30562
C         24.55322        12.63539        -1.03466
C         23.34786        14.80558        -1.19225
C         23.31662        16.21205        -1.03279
C         24.53523        14.06728        -0.95456
C         24.47071        16.85033        -0.57457
C         23.39296        19.10899        -2.20100
C         24.51973        18.98509        -1.42446
C         25.86215         1.83748        -0.18842
C         25.86174         3.26140        -0.39377
C         27.08973         1.18455         0.08496
C         27.06029         3.98377        -0.15368
C         25.93101         6.14821        -0.86933
C         25.90254         7.61445        -0.84221
C         26.99009         5.45609        -0.09554
C         27.06645         8.35012        -0.54207
C         25.82867        10.51406        -0.84687
C         25.77280        11.93720        -0.77952
C         27.01972         9.81526        -0.54782
C         26.97512        12.66542        -0.52055
C         25.74345        14.77817        -0.68824
C         25.72045        16.18202        -0.48172
C         26.98882        14.10775        -0.58650
C         26.93810        16.89207        -0.29128
C         25.83817        19.49075        -1.71919
C         26.99883        19.02208        -1.07974
C         28.30385         1.89936         0.22268
C         28.27165         3.34057         0.16890
C         29.54402         1.24210         0.42659
C         29.48922         4.09294         0.39625
C         28.23858         6.25490         0.20118
C         28.26147         7.66772        -0.19831
C         29.49597         5.50847         0.37214
C         29.53022         8.36685        -0.07939
C         28.16259        10.55749        -0.14576
C         28.14032        11.96457        -0.16756
C         29.46432         9.89280         0.04166
C         29.42713        12.69167        -0.11497
C         28.18253        14.86246        -0.55192
C         28.19698        16.28856        -0.47401
C         29.46037        14.16354        -0.46043
C         29.45170        17.04775        -0.57152
C         28.34664        19.22442        -1.42672
C         29.46788        18.46378        -0.93152
C         30.75621         1.96125         0.58027
C         30.72340         3.40095         0.58957
C         32.00647         1.30101         0.68114
C         31.93532         4.12646         0.80153
C         30.70770         6.23886         0.53353
C         30.70810         7.66131         0.44802
C         31.92748         5.56042         0.80822
C         31.85795         8.40187         0.78235
C         30.52207        10.56388         0.85031
C         30.51221        12.14179         0.74125
C         31.75634         9.80157         1.08083
C         31.72992        12.94784         0.81895
C         30.67532        14.94821        -0.19237
C         30.68813        16.37163        -0.43410
C         31.80353        14.22791         0.19266
C         31.99166        17.05238        -0.48007
C         30.71132        19.11891        -0.92129
C         31.97131        18.52431        -0.62309
C         33.21749         2.01576         0.84537
C         33.15550         3.43456         1.00185
C         34.48793         1.37349         0.67187
C         34.36480         4.19298         1.31444
C         33.12830         6.31185         1.02430
C         33.09617         7.73735         1.07159
C         34.36525         5.65445         1.22726
C         34.28213         8.47559         1.36879
C         32.85797        10.37674         1.71652
C         32.85687        12.47037         1.53198
C         34.18793         9.88919         1.60120
C         34.17462        12.91523         1.35930
C         33.16070        14.80566        -0.04650
C         33.14933        16.29585        -0.29350
C         34.19436        14.34967         0.97359
C         34.48889        16.83940        -0.32924
C         33.03288        19.42613        -0.38470
C         34.42359        19.06684        -0.32085
C         35.68728         2.08932         0.61106
C         35.73434         3.47837         1.09782
C         36.87748         1.55407         0.05057
C         36.87686         4.33682         0.78017
C         35.57734         6.38973         1.29977
C         35.54742         7.81841         1.42793
C         36.83157         5.73695         1.04920
C         36.74935         8.58203         1.60204
C         35.35121        10.71598         1.75008
C         35.35417        12.18113         1.69248
C         36.60566        10.02040         1.85070
C         36.60891        12.91428         1.72996
C         35.45023        15.09892         1.13871
C         35.53388        16.38973         0.42967
C         36.68821        14.35978         1.49090
C         36.69371        17.23719         0.79908
C         35.47782        19.56123         0.39886
C         36.70457        18.74237         0.69894
C         38.00740         2.35022        -0.17147
C         38.00385         3.75531         0.16506
C         39.17319         1.80606        -0.81138
C         39.12482         4.58015        -0.15884
C         37.98616         6.55125         0.84601
C         37.99173         7.92730         1.26147
C         39.12842         5.96669         0.19174
C         39.24608         8.63684         1.08112
C         37.70186        10.82050         2.24601
C         37.79980        12.21514         2.02392
C         39.51977         9.85817         1.73401
C         39.12173        12.90754         2.14474
C         37.87926        15.05395         1.49785
C         37.97174        16.44163         0.92520
C         39.12318        14.41548         2.00453
C         39.25289        17.21503         0.92697
C         38.03715        19.38925         0.63562
C         39.20667        18.70302         0.80096
C         40.23586         2.60178        -1.14038
C         40.23682         4.00627        -0.84111
C         41.31532         4.83382        -1.22046
C         40.23060         6.77459        -0.21322
C         40.25909         8.16320         0.19600
C         41.30040         6.18884        -0.92869
C         41.27544         9.06202        -0.20542
C         40.46479        10.79443         1.29373
C         40.46231        12.17872         1.84652
C         41.32303        10.37499         0.25508
C         41.64574        13.01565         1.54490
C         40.44150        15.16155         1.88798
C         40.48742        16.59405         1.45694
C         41.65821        14.35685         1.64920
C         41.61321        17.35167         1.58030
C         40.47591        19.39994         0.87045
C         41.61642        18.75317         1.23559
O         27.19905         5.98373         1.24575
O         21.46444         5.71409        -2.81637
O         12.55994         4.79845         1.98339
O          4.21321         8.06400         2.29668
O         10.74695        10.52101         1.59500
O          2.48560        13.68274         3.02107
O         35.16251         3.66569         2.41915
O         39.96663        12.38781         3.19894
O          2.99349        17.36324         1.88403
O         29.78636        13.11717        -1.46981
O         38.78428        16.49091        -0.29796
O         16.13604         5.56331        -1.73391
O         15.25769         4.87338         1.62377
O         34.38105        15.15345         2.18112
O         36.47684        18.04459         2.01011
O         19.52182         8.96645        -2.89683
O         30.02028        11.42615         1.90480
O         29.91820         9.26788        -1.19261
O         26.82861        18.22277         0.07888
O          9.14623         3.47740         2.15164
O         24.40728        18.20829        -0.23786
O         32.63159        11.49848         2.51181
O         39.73946        15.05511         3.17511
O         24.84543         9.03881        -2.57347
O         22.72525         7.90678         0.06955
O         25.74138         5.60437        -2.22705
O         21.63015        14.45909        -2.93285
O         38.76270        10.15642         2.87430
O         10.33365        13.59805         1.34570
O         34.72230        17.95181        -1.13560
O         21.80547        17.61990         0.15812
H         22.60396        18.14092         0.41084
O          5.83961        10.75797        -1.01740
H          6.48224        11.38378        -1.41685
O         10.47536        11.74347        -1.80364
H         11.21315        11.41852        -2.36180
O          7.38231         5.44052         2.68821
H          8.02865         4.71857         2.89757
O          3.86380        19.01047        -0.14948
H          3.10061        18.65520         0.36288
O         13.23281        15.97534        -3.21794
H         14.04636        15.53568        -3.54719
O         22.24867         3.28925        -2.84545
H         21.77067         3.94435        -3.40806
O         33.62461        14.18670        -1.29826
H         32.93511        14.33157        -1.98128
O         22.06786        17.62021        -3.48531
H         21.99358        18.32813        -4.15807
O          7.20138         8.27013        -1.05378
H          6.55419         8.96419        -1.33566
H          0.61924         2.10001        -2.06062
H          0.52286         4.46098        -1.34253
H          2.72119         0.78171        -1.77124
H          0.57359         6.36969        -1.01648
H          0.55397         8.72343        -0.32286
H          0.33492        10.15948         1.41976
H          0.46249        12.44892         2.41769
H          2.34503        15.22603         4.86794
H          3.57690        17.40606         5.21794
H          4.30114        19.72997         3.96327
H          5.03668         0.63895        -1.11242
H          5.48210        20.44858         1.99770
H          7.40182         0.52888        -0.75712
H          6.24415        20.31069        -0.36487
H          9.78396         0.41883        -0.60031
H          8.58316        20.21297        -0.94139
H         12.21061         0.27329        -0.53809
H         11.00282        20.17081        -1.38617
H         14.73240         0.12540        -0.51890
H         13.45344        20.13651        -1.74368
H         17.22731         0.04768        -0.38172
H         15.91930        20.14201        -1.77435
H         19.72794         0.05205        -0.27281
H         18.36705        20.16312        -1.85265
H         22.14739         0.06765        -0.27914
H         20.84395        20.11656        -2.22373
H         24.60781         0.06055        -0.05479
H         23.48584        19.71894        -3.11544
H         27.09834         0.09013         0.19822
H         25.95593        20.11001        -2.61995
H         29.56887         0.14215         0.44543
H         28.58790        20.07233        -2.08698
H         32.03954         0.20482         0.59083
H         30.71168        20.19861        -1.13725
H         34.49253         0.30962         0.38950
H         32.76073        20.48518        -0.24840
H         36.88871         0.50250        -0.27328
H         35.34860        20.46679         1.01103
H         39.18592         0.73376        -1.05518
H         38.07341        20.48201         0.50512
H         41.11201         2.17387        -1.64914
H         42.17092         4.39529        -1.75376
H         42.15328         6.80726        -1.23901
H         42.02621         8.73990        -0.93889
H         42.07796        11.05990        -0.15466
H         42.57745        12.49608         1.27555
H         42.58607        14.89784         1.41099
H         42.54433        16.91212         1.96503
H         40.48860        20.47955         0.66103
H         42.56333        19.30536         1.31189
