         420
 CSIRO Nanostructure Databank - Neutral Graphene Oxide Data Set
C         27.87024        27.28409         0.87263
C         27.82312        28.73042         0.78953
C         26.66328        29.43177         0.58448
C         27.81825        31.61049         0.55127
C         26.65575        30.85978         0.50610
C         27.81528        33.07307         0.53701
C         26.59729        33.81164         0.29474
C         27.71543        35.94348         0.72284
C         26.58259        35.17003         0.21487
C         27.81989        37.39687         0.43734
C         26.61479        38.17937         0.48404
C         27.91956        40.25128         0.29769
C         26.64511        39.54076         0.50241
C         27.96463        41.74790         0.10600
C         26.73752        42.56942         0.05603
C         27.99021        44.52857        -0.70939
C         26.76343        43.85902        -0.40436
C         28.06012        45.84852        -1.15256
C         30.30227        27.28729         0.43544
C         29.03594        26.59644         0.78264
C         30.31242        28.78014         0.51487
C         29.10155        29.47341         1.09274
C         30.29309        31.60386         0.62363
C         29.09322        30.93522         0.71467
C         30.29946        33.06788         0.27467
C         29.01906        33.75364         0.66900
C         30.30833        35.96259         1.14079
C         29.01143        35.17581         0.99724
C         30.29081        37.32027         0.44755
C         29.06472        38.00146         0.20536
C         30.37180        40.11367        -0.43175
C         29.01572        39.41988        -0.36573
C         30.43387        41.58404        -0.46454
C         29.13603        42.31760        -0.69539
C         30.52840        44.43506        -0.85003
C         29.25826        43.80001        -0.35244
C         30.53376        45.81185        -1.19642
C         29.28932        46.48684        -1.35811
C         32.83060        24.47829         0.26103
C         31.65912        25.17411         0.30618
C         32.78854        27.34031         0.57768
C         31.61268        26.59651         0.50072
C         32.81520        28.78889         0.58041
C         31.59843        29.50706         0.62070
C         32.80680        31.63696         0.64309
C         31.57448        30.91262         0.66071
C         32.80339        33.07575         0.67883
C         31.56368        33.78905         0.68239
C         32.78228        35.89927         0.87163
C         31.55625        35.17176         0.80970
C         32.73745        37.32308         0.78021
C         31.54267        37.97770         0.41949
C         32.86280        40.14676         0.14169
C         31.62831        39.36894        -0.07466
C         32.87239        41.50358        -0.25381
C         31.66031        42.23802        -0.50620
C         32.95937        44.37652        -0.82645
C         31.72209        43.69166        -0.74648
C         33.00342        45.77861        -1.07192
C         31.79977        46.48212        -1.35823
C         33.09367        48.49379        -1.84363
C         31.88682        47.84699        -1.76337
C         35.45316        23.02892         0.36849
C         35.38795        24.43407         0.33925
C         34.09421        25.11595         0.62516
C         35.31099        27.39622         0.46152
C         34.07464        26.64383         0.72684
C         35.30173        28.77810         0.47873
C         34.04903        29.50133         0.59640
C         35.28808        31.65579         0.58176
C         34.04387        30.92520         0.61274
C         35.28152        33.06761         0.68465
C         34.03580        33.78592         0.76516
C         35.26884        35.94766         0.91921
C         34.03043        35.20779         0.86010
C         35.25876        37.35086         0.99887
C         33.96098        38.10935         1.16121
C         35.26669        40.20903         0.69316
C         34.03247        39.49528         0.57273
C         35.31861        41.55319         0.32694
C         34.16920        42.17368        -0.32641
C         35.45274        44.42045        -0.34417
C         34.22780        43.65391        -0.67576
C         35.46212        45.81604        -0.65871
C         34.26768        46.47267        -1.08056
C         35.55050        48.55155        -1.46110
C         34.31621        47.84764        -1.47241
C         35.67691        49.86191        -2.05376
C         37.84222        23.08724        -0.09560
C         36.65408        22.37018         0.14566
C         37.79307        24.50957        -0.07243
C         36.56263        25.17612         0.14185
C         37.81442        27.34139         0.45260
C         36.53769        26.67924        -0.05634
C         37.77984        28.84379         0.26389
C         36.55517        29.52558         0.36889
C         37.76470        31.67168         0.44150
C         36.53407        30.95151         0.45004
C         37.75663        33.09977         0.59277
C         36.51906        33.79524         0.70202
C         37.74591        35.90496         0.97803
C         36.52002        35.21626         0.85302
C         37.71800        37.33904         1.33255
C         36.46864        38.10193         1.12424
C         37.73255        40.26428         1.15192
C         36.48952        39.50324         1.06733
C         37.72697        41.65032         0.96829
C         36.44435        42.41302         0.81632
C         37.80301        44.50388         0.32209
C         36.58007        43.77308         0.15697
C         37.80931        45.90166         0.02796
C         36.66938        46.55758        -0.47227
C         37.90609        48.68773        -0.78492
C         36.72030        47.95513        -0.87355
C         37.96773        50.15707        -1.12173
C         36.81132        50.59345        -1.97059
C         40.30544        20.27010        -0.72576
C         39.15971        20.94534        -0.43795
C         40.25697        23.12529        -0.57446
C         39.11161        22.38867        -0.31625
C         40.18016        24.57857        -0.81331
C         38.99129        25.30001        -0.32947
C         40.25100        27.43381        -0.29733
C         39.03019        26.66881        -0.14866
C         40.24681        28.84910        -0.05969
C         39.00521        29.55341         0.17166
C         40.24034        31.70181         0.24657
C         39.00101        30.97405         0.28523
C         40.22423        33.12283         0.41662
C         38.98897        33.82149         0.61665
C         40.23883        35.96584         0.84580
C         38.98768        35.23295         0.83593
C         40.26789        37.37875         1.06164
C         39.02147        38.09730         1.39186
C         40.21426        40.24850         1.24183
C         38.99732        39.57038         1.27067
C         40.25307        41.70742         1.39732
C         38.92194        42.45885         1.22365
C         40.24318        44.55128         0.81986
C         38.98701        43.86728         0.79312
C         40.27998        45.94992         0.55335
C         39.01741        46.66548         0.35348
C         40.40817        48.72257        -0.34433
C         39.07639        48.13937        -0.10110
C         40.49623        49.93894        -1.12268
C         39.34058        50.57661        -1.63022
C         40.73221        52.18155        -2.82752
C         39.48407        51.69435        -2.47790
C         42.81982        20.34153        -1.22131
C         41.60398        20.93948        -0.65592
C         42.78453        23.22970        -0.98387
C         41.57118        22.48273        -0.59338
C         42.76044        24.63165        -1.00674
C         41.47122        25.35897        -0.97994
C         42.70036        27.48770        -0.59836
C         41.46148        26.78625        -0.62769
C         42.69247        28.87306        -0.31650
C         41.47317        29.56993        -0.10360
C         42.68050        31.76257        -0.08197
C         41.46967        31.01305         0.05370
C         42.64123        33.17077         0.01663
C         41.44103        33.85645         0.34269
C         42.68600        36.01240         0.53679
C         41.44885        35.28212         0.55749
C         42.70439        37.41063         0.79823
C         41.46926        38.10737         1.01161
C         42.67549        40.27132         1.19786
C         41.46891        39.55086         1.14883
C         42.72095        41.70682         1.19555
C         41.51048        42.43523         1.18495
C         42.71784        44.57909         1.05524
C         41.48572        43.85094         1.04225
C         42.69425        45.98481         0.87823
C         41.49659        46.67457         0.55798
C         42.84614        48.71971        -0.01153
C         41.55355        48.05741         0.09528
C         42.95368        49.94475        -0.78325
C         41.78772        50.48319        -1.40845
C         43.19187        52.13523        -2.56898
C         41.90329        51.60600        -2.27947
C         43.95012        21.07713        -1.38227
C         45.21502        23.23939        -1.34238
C         43.99982        22.51329        -1.19051
C         45.21457        24.67635        -1.32919
C         43.96237        25.38466        -1.12270
C         45.14873        27.54488        -1.05908
C         43.93246        26.78646        -0.92271
C         45.15735        28.88460        -0.76363
C         44.00234        29.57849        -0.08280
C         45.11146        31.78736        -0.47935
C         43.94994        31.08164        -0.30207
C         45.15031        33.25807        -0.50924
C         43.84798        33.97527        -0.24301
C         45.14754        36.03968         0.28368
C         43.91167        35.36359         0.23172
C         45.16491        37.42878         0.63984
C         43.94566        38.09443         0.87692
C         45.24348        40.27448         1.25101
C         43.93603        39.51132         1.28585
C         45.21349        41.74229         1.11577
C         43.97827        42.42815         1.15885
C         45.21589        44.55186         1.13944
C         43.97583        43.86285         1.14629
C         45.23541        46.01952         1.25765
C         43.91830        46.77089         1.08764
C         45.24857        48.86162         0.64538
C         43.96823        48.14934         0.57719
C         45.39345        50.11366        -0.26657
C         44.20996        50.54455        -1.03027
C         44.31105        51.61325        -1.96090
C         47.64334        23.27422        -1.58431
C         46.46960        22.57476        -1.48816
C         47.66916        24.70639        -1.60597
C         46.41451        25.38514        -1.51941
C         47.67582        27.50684        -1.29802
C         46.34835        26.88736        -1.73459
C         47.68249        28.92685        -0.86955
C         46.39361        29.65826        -0.98045
C         47.67204        31.82988        -0.52859
C         46.39758        31.13015        -0.79136
C         47.65569        33.21698        -0.24963
C         46.41802        33.95300        -0.20473
C         47.64574        36.03009         0.24977
C         46.39886        35.32493         0.08101
C         47.65046        37.43926         0.48511
C         46.42230        38.15240         0.67533
C         47.68179        40.27632         0.77436
C         46.46106        39.54460         0.86754
C         47.68180        41.71092         0.86047
C         46.44709        42.43378         0.99159
C         47.71047        44.57355         1.03741
C         46.45423        43.86394         1.03713
C         47.73838        46.00076         1.05467
C         46.50372        46.75069         1.02834
C         47.76340        48.94599         0.99904
C         46.49406        48.12321         0.92326
C         47.85291        49.85890        -0.21382
C         46.75800        50.40402        -0.76553
C         50.16384        24.74600        -1.52589
C         48.92416        25.40002        -1.64805
C         50.21986        27.61828        -1.43981
C         48.94568        26.89441        -1.86860
C         50.12408        29.06005        -1.27611
C         48.92198        29.71560        -0.94887
C         50.13477        31.84201        -0.55671
C         48.89631        31.12226        -0.68424
C         50.11458        33.21816        -0.27868
C         48.89725        33.91480        -0.10357
C         50.10133        36.03174         0.37250
C         48.87637        35.33562         0.14915
C         50.10991        37.40694         0.59211
C         48.88521        38.14041         0.57303
C         50.14749        40.28951         0.59615
C         48.90405        39.56810         0.66018
C         50.14775        41.71189         0.61815
C         48.91366        42.42061         0.78387
C         50.19825        44.52005         0.91432
C         48.93632        43.84104         0.93073
C         50.23317        45.94444         1.40696
C         48.97079        46.71260         1.09837
C         50.24725        48.79037         1.28756
C         49.00906        48.10619         1.13112
C         51.34867        25.44890        -1.36242
C         52.66150        27.45823        -0.75260
C         51.40024        26.87400        -1.24785
C         52.99720        28.78216        -1.04783
C         51.26960        29.90470        -1.40085
C         52.67309        31.78950        -0.50970
C         51.38565        31.17787        -0.83789
C         52.65733        33.15228        -0.16510
C         51.40741        33.98083        -0.41119
C         52.65698        35.94055         0.66841
C         51.35905        35.24607         0.41789
C         52.68722        37.41995         0.85670
C         51.36713        38.15018         0.83244
C         52.61227        40.27374         0.40567
C         51.37952        39.59527         0.56437
C         52.61025        41.69766         0.34716
C         51.38685        42.41406         0.50382
C         52.63532        44.61073         0.31901
C         51.37719        43.84288         0.63806
C         52.69592        46.01259         0.88816
C         51.51032        46.70432         1.11881
C         51.45503        48.12279         1.27302
C         54.69958        27.40810         0.58343
C         53.56940        26.77063         0.10482
C         54.90545        28.81027         0.40435
C         53.93812        29.55892        -0.33019
C         55.05197        31.63001         0.23968
C         53.90281        31.00432        -0.28289
C         55.12492        33.11729         0.48212
C         53.85612        33.84956         0.15580
C         55.12286        35.97674         0.16080
C         53.89757        35.24443         0.28598
C         55.11928        37.38617         0.19525
C         53.90305        38.14743         0.42751
C         55.05026        40.26742        -0.28500
C         53.85248        39.52497         0.26848
C         55.10509        41.70833         0.18355
C         53.88106        42.41340         0.32747
C         55.13263        44.49964         0.60424
C         53.90231        43.81388         0.49514
C         55.14283        45.93195         0.80251
C         53.98448        46.64268         0.95084
C         56.03099        29.49688         0.92797
C         56.12177        30.86691         0.77017
C         56.31260        33.84355        -0.11447
C         56.30784        35.19356        -0.18856
C         56.33872        38.14956         0.02365
C         56.32934        39.49286        -0.12156
C         56.31713        42.40089         0.30396
C         56.33801        43.77120         0.55015
O         47.70866        27.82595         0.11898
O         30.13687        28.13751        -0.78209
O         40.63093        25.00608        -2.14853
O         52.35088        29.40209        -2.13058
O         38.37156        37.61068         2.62792
O         44.37977        33.84020        -1.61672
O         31.18751        39.47485        -1.49209
O         46.36776        30.52851        -2.16552
O         38.81383        47.77160         1.29919
O         52.07628        37.84985         2.10445
O         44.51018        46.55651         2.41530
O         51.96123        35.18770         1.73808
O         34.48165        42.65482        -1.72525
O         45.20663        50.22493         1.18291
O         44.68014        39.78504         2.52737
O         28.33110        41.13730         1.38463
O         34.11531        25.78106         1.92898
O         39.50050        42.20995         2.55349
O         41.82061        21.65709         0.59833
O         28.08738        35.52831         2.08853
O         28.80765        42.16320        -2.09556
H         28.69457        41.19501        -2.26874
O         30.31923        33.12734        -1.20473
H         31.04715        32.54456        -1.51026
O         44.27192        29.44966         1.36743
H         44.34117        28.49268         1.57292
O         36.04095        42.75993         2.20880
H         36.85373        42.79247         2.75984
O         28.58327        39.30739        -1.76011
H         29.35580        38.94376        -2.25325
O         29.36776        43.84953         1.10752
H         29.39634        44.79163         1.37580
O         29.28190        29.41388         2.54622
H         28.53437        29.89507         2.95936
O         36.52884        26.89108        -1.50153
H         35.76431        26.41155        -1.88270
O         30.47024        36.27391         2.56061
H         29.55694        36.32518         2.93394
O         55.28718        33.23490         1.94178
H         55.07499        34.16079         2.19002
O         54.82652        40.36608        -1.74201
H         54.80614        39.45147        -2.09553
O         46.15968        27.10682        -3.15384
H         47.03921        27.02008        -3.59423
O         52.54671        44.83588        -1.14474
H         53.41432        45.19064        -1.43510
O         50.22897        45.80556         2.87880
H         50.09279        46.70150         3.25567
O         33.81609        38.33480         2.61719
H         33.61919        37.46791         3.03293
O         37.80486        50.85470         0.16924
H         38.33909        50.37368         0.83803
O         47.69894        49.79402         2.17765
H         46.81999        50.24633         2.14911
O         48.85901        27.09930        -3.33012
H         49.65814        26.69602        -3.73177
O         51.47595        34.44941        -1.80042
H         51.41641        33.66293        -2.38340
O         37.86640        27.11489         1.88862
H         38.64370        27.59181         2.24671
H         26.92220        26.74166         1.01235
H         25.71426        28.89322         0.44379
H         25.68366        31.35345         0.37411
H         25.70194        33.25524        -0.01568
H         25.71223        35.69357        -0.20521
H         25.66189        37.65851         0.65465
H         25.73229        40.11294         0.71673
H         25.77829        42.11746         0.34693
H         25.82076        44.41878        -0.50575
H         27.12986        46.40693        -1.33651
H         29.03532        25.50175         0.88507
H         29.27929        47.54172        -1.66228
H         32.83460        23.43764        -0.09273
H         30.72262        24.65346         0.06090
H         33.10671        49.54788        -2.15000
H         30.97346        48.39862        -2.02281
H         34.54712        22.44268         0.57324
H         34.83546        50.26164        -2.63702
H         36.66032        21.27318         0.17167
H         36.84096        51.58213        -2.44846
H         40.27088        19.20529        -0.99943
H         38.21435        20.38634        -0.43809
H         40.82011        53.04474        -3.50235
H         38.59503        52.19704        -2.88024
H         42.80313        19.27852        -1.50384
H         43.28031        52.99153        -3.25233
H         44.84750        20.57083        -1.76361
H         45.28915        52.07036        -2.16179
H         48.58138        22.71064        -1.67018
H         46.51114        21.47772        -1.48967
H         48.84870        50.09981        -0.61656
H         46.86347        51.05251        -1.64759
H         50.21082        23.64921        -1.48317
H         50.23149        49.88601         1.36838
H         52.28108        24.88081        -1.24181
H         52.38265        48.71200         1.27911
H         55.42994        26.84439         1.18117
H         53.38969        25.71795         0.36396
H         56.11495        46.43831         0.89015
H         54.04949        47.71302         1.19200
H         56.81532        28.93949         1.45898
H         56.98982        31.40417         1.17737
H         57.21793        33.27582        -0.37734
H         57.20387        35.71789        -0.55131
H         57.30155        37.61953         0.04511
H         57.28601        40.01379        -0.26655
H         57.27454        41.87375         0.19982
H         57.29651        44.29908         0.65477
