         331
 CSIRO Nanostructure Databank - Neutral Graphene Oxide Data Set
C         31.19651        57.02390        -2.60816
C         31.24337        58.41515        -2.83369
C         30.08887        59.13890        -3.15836
C         31.22456        61.27651        -2.87736
C         30.10116        60.54670        -3.23851
C         33.13331        52.79159        -1.01225
C         33.19401        54.17176        -1.22096
C         32.19879        54.89249        -1.92429
C         33.66673        56.93819        -2.16996
C         32.29971        56.27535        -2.16622
C         33.61906        58.44274        -1.99704
C         32.55678        59.15248        -2.78650
C         33.49874        61.30186        -1.93650
C         32.42431        60.61843        -2.48418
C         35.37576        48.59486         0.21185
C         35.32584        49.99643         0.38330
C         34.17711        50.73757        -0.05141
C         34.92653        53.01975         0.61921
C         34.04892        52.14169        -0.12747
C         35.30675        54.29029         0.22954
C         34.20377        55.03279        -0.48753
C         35.71405        57.01650        -0.52389
C         34.67170        56.24861        -1.25051
C         35.60308        58.51602        -0.42531
C         34.60770        59.14691        -1.37809
C         35.73877        61.29692        -0.91302
C         34.63729        60.60985        -1.41529
C         37.78379        44.33196         0.68700
C         37.74761        45.68071         0.89101
C         36.61227        46.44765         0.43600
C         37.70721        48.55292         1.09109
C         36.52438        47.82376         0.55486
C         37.87083        49.94634         0.52918
C         36.56528        50.66790         0.74922
C         37.79386        52.79371         1.15562
C         36.63071        51.94039         1.24437
C         37.68919        54.23875         1.12429
C         36.51901        54.95480         0.69811
C         37.74313        57.13091         0.88314
C         36.63367        56.36820         0.45510
C         37.91218        58.50710         0.55006
C         36.99833        59.13888        -0.49805
C         37.97297        61.34997         0.09412
C         36.90623        60.64496        -0.40249
C         40.19385        40.15127        -0.14725
C         40.13700        41.50102         0.36571
C         38.94576        42.12397         0.65479
C         40.19350        44.24348         1.26917
C         38.87879        43.48405         1.28929
C         40.19744        45.62288         1.48730
C         38.85565        46.30169         1.75363
C         40.19345        48.57839         1.86936
C         38.87899        47.83318         1.65232
C         40.21849        50.02589         1.41345
C         39.06078        50.70022         1.08071
C         40.29862        52.91382         1.03825
C         39.02241        52.13723         1.09190
C         40.14416        54.32481         1.53896
C         38.91070        54.96093         1.42511
C         40.11226        57.18032         1.88893
C         38.81784        56.42615         1.62241
C         40.16764        58.62004         1.56555
C         39.04320        59.24939         0.97441
C         40.20523        61.42520         1.05818
C         39.11490        60.69061         0.68823
C         42.68752        36.07868        -1.31872
C         42.65483        37.39403        -0.82706
C         41.43682        38.11345        -0.74588
C         42.63428        40.03225         0.36350
C         41.38004        39.42551        -0.23436
C         42.62853        41.52964         0.16804
C         41.38353        42.22364         0.57551
C         42.73071        44.19593         1.35875
C         41.41492        43.53538         1.00126
C         42.67192        45.70132         1.32417
C         41.42932        46.35211         1.46317
C         42.69342        48.59266         1.51335
C         41.41328        47.83245         1.39250
C         42.67952        50.04854         1.81921
C         41.45637        50.75789         1.63878
C         42.67365        52.87915         1.84704
C         41.47517        52.16131         1.60114
C         42.63275        54.30687         1.89104
C         41.37585        55.03822         1.82179
C         42.62643        57.18339         2.27479
C         41.36861        56.42241         1.95168
C         42.61578        58.63765         1.84874
C         41.39913        59.31790         1.71289
C         42.66253        61.48577         1.52857
C         41.35118        60.82530         1.81281
C         45.18553        33.36339        -2.08581
C         43.94661        34.05108        -1.94262
C         45.12799        35.97822        -0.96432
C         43.89936        35.34748        -1.40799
C         45.13946        37.29781        -0.57813
C         43.90953        38.04763        -0.47279
C         45.17551        40.10026         0.04666
C         43.92608        39.37391        -0.05505
C         45.18528        41.52463         0.12131
C         43.90779        42.27355         0.13746
C         45.09943        44.38725         0.55127
C         43.93970        43.67511         0.61533
C         45.13973        45.76960         1.04222
C         43.90293        46.39928         1.35318
C         45.19834        48.54887         1.76538
C         43.90652        47.79344         1.91062
C         45.15420        49.96815         2.15850
C         43.88949        50.73843         2.00612
C         45.15197        52.90382         1.99814
C         43.91008        52.16458         2.01478
C         45.12348        54.31390         1.86637
C         43.86544        55.03653         1.89791
C         45.06303        57.15840         1.36502
C         43.86237        56.43465         1.88333
C         45.07725        58.64619         1.59710
C         43.86310        59.33481         1.71369
C         45.09814        61.47621         1.41824
C         43.85291        60.79168         1.56770
C         46.35675        33.87767        -1.60989
C         47.61170        35.98489        -1.09507
C         46.38971        35.15407        -0.82036
C         47.64273        37.31044        -0.73486
C         46.42433        37.90931        -0.05403
C         47.60878        40.14593        -0.18211
C         46.40648        39.41935        -0.08991
C         47.60534        41.56758        -0.08251
C         46.37191        42.25572         0.06267
C         47.60528        44.48474         0.09237
C         46.28643        43.76177        -0.17036
C         47.62831        45.85191         0.71063
C         46.35283        46.48776         1.13701
C         47.70180        48.54047         1.90119
C         46.38048        47.86639         1.54160
C         47.68723        50.03634         1.71462
C         46.46733        50.74638         2.08991
C         47.62390        52.88313         1.76407
C         46.41162        52.20486         1.93546
C         47.62202        54.34246         1.96529
C         46.34917        55.07112         1.83908
C         47.57610        57.19134         1.47635
C         46.35516        56.45525         1.68851
C         47.53144        58.63756         1.29821
C         46.31827        59.33604         1.42432
C         47.53343        61.49305         1.20311
C         46.31381        60.79239         1.36885
C         48.82585        38.09060        -0.83764
C         50.05368        40.18857        -0.54110
C         48.85609        39.45701        -0.49083
C         50.08427        41.58795        -0.30447
C         48.84674        42.29896        -0.10412
C         50.09151        44.38230         0.22853
C         48.86225        43.69026         0.11134
C         50.13735        45.75813         0.64243
C         48.93166        46.36597         1.33614
C         50.07528        48.59894         1.10648
C         48.93570        47.88068         1.33706
C         50.07617        50.05316         1.10930
C         48.84484        50.75253         1.40103
C         50.04201        52.91505         1.16269
C         48.84354        52.19603         1.46953
C         50.09091        54.34698         1.21925
C         48.91793        55.10933         1.70864
C         49.96866        57.22000         0.74796
C         48.79018        56.52450         1.36716
C         49.98565        58.68804         1.07066
C         48.78651        59.35858         1.17204
C         49.95095        61.51144         0.80943
C         48.76549        60.82208         1.10749
C         51.29264        42.30627        -0.33720
C         52.52269        44.43124        -0.13391
C         51.31939        43.69434        -0.07480
C         52.53113        45.81733         0.10722
C         51.31807        46.46688         0.54941
C         52.52544        48.67554         0.46357
C         51.40880        47.87617         1.08263
C         52.46100        50.07093         0.42142
C         51.23952        50.77189         0.79100
C         52.36363        52.93640         0.31837
C         51.21921        52.20983         0.76401
C         52.36016        54.36220         0.30301
C         51.22413        55.04874         0.81964
C         52.42130        57.25443         0.41699
C         51.28691        56.53235         1.10048
C         52.44975        58.65933         0.51606
C         51.31071        59.40664         1.19513
C         52.36224        61.51787         0.39857
C         51.21286        60.85040         0.73172
C         53.71209        46.57527        -0.06235
C         54.83621        48.73466        -0.37632
C         53.70460        47.99112         0.02617
C         54.79954        50.13829        -0.40884
C         53.59764        50.81890        -0.02831
C         54.65934        52.96872        -0.59508
C         53.54578        52.23766        -0.09631
C         54.56939        54.37919        -0.75081
C         53.46671        55.09165        -0.24478
C         54.59004        57.28643        -0.69230
C         53.47623        56.55243        -0.21245
C         54.68655        58.68455        -0.46882
C         53.59467        59.36751         0.12166
C         54.73618        61.57772        -0.37380
C         53.70331        60.83304         0.47940
C         55.93027        50.89535        -0.84269
C         57.00582        53.03186        -1.45124
C         55.87024        52.27503        -0.95652
C         56.91583        54.36130        -1.71514
C         55.65101        55.07723        -1.46704
C         56.98343        57.27774        -1.53040
C         55.67774        56.60369        -1.41450
C         57.07668        58.65529        -1.18926
C         55.91962        59.38726        -0.77116
C         57.23719        61.43922        -0.71428
C         56.01301        60.79510        -0.58882
C         58.02352        55.12239        -2.40852
C         59.35992        57.21722        -2.04714
C         58.12941        56.56924        -1.96661
C         59.48711        58.59832        -1.73154
C         58.32926        59.32458        -1.32135
C         59.67996        61.36315        -1.16104
C         58.42368        60.72166        -1.04885
C         60.72853        59.27817        -1.82854
C         60.81291        60.63872        -1.53902
O         47.74418        45.69514        -0.73844
O         48.48554        54.77096         3.06777
O         39.13467        56.88820         2.97229
O         33.00769        59.10381        -4.28771
O         35.47578        52.50121         1.79821
O         43.13002        42.03035        -1.12069
O         42.10141        48.33105         0.19663
O         45.88935        50.27508         3.40094
O         55.22245        55.88673        -2.61903
O         37.85699        48.43877         2.54507
O         40.62987        53.06596        -0.40723
H         39.93281        53.63026        -0.80591
O         33.41991        55.65521         0.59863
H         33.07566        54.93919         1.17398
O         46.46558        34.77570         0.61885
H         45.68934        34.20450         0.80451
O         54.13380        60.88295         1.87520
H         54.46773        61.79716         2.01846
O         47.79217        48.31637         3.37059
H         47.12400        48.93260         3.77446
O         35.08385        58.75487         0.91030
H         34.98634        59.72362         1.02737
O         41.07811        61.09904         3.24720
H         41.82163        60.71441         3.75951
O         48.99338        45.92706         2.72363
H         48.52367        46.60748         3.26828
O         46.51420        37.52736         1.35471
H         46.57348        36.53826         1.37059
O         34.15789        56.70499        -3.52220
H         33.78619        57.41122        -4.10494
O         46.02992        43.89639        -1.59513
H         45.16812        43.46950        -1.79004
O         59.27494        54.45071        -2.27008
H         59.52012        54.44404        -1.32253
O         42.96675        43.84038         2.76923
H         42.17091        44.10749         3.27748
O         36.00845        56.34760        -1.81973
O         38.52631        43.26070         2.69539
H         38.43994        44.15791         3.10929
O         40.36947        48.64937         3.31394
H         39.49780        48.90251         3.69333
O         34.28978        59.74115        -4.37803
H         34.06976        60.70420        -4.42055
O         51.76291        47.73116         2.50390
H         51.06438        47.17415         2.91609
O         51.45012        56.67897         2.53199
H         52.33175        56.33708         2.78483
O         51.64469        59.48156         2.61354
H         52.51193        59.95121         2.66876
O         49.83399        57.10445        -0.70844
H         49.00512        57.55866        -0.97094
O         43.75907        47.63978         3.37088
H         44.52385        47.12086         3.69913
O         54.96232        62.83969         0.25805
H         55.51582        63.39334        -0.32856
O         44.94737        57.04845        -0.12333
H         44.88231        56.09226        -0.33719
O         37.57604        58.83179        -1.79308
H         37.23107        57.95938        -2.09274
O         42.54679        39.84574         1.81136
H         42.56369        38.88279         1.99358
O         38.52320        45.98643         3.13822
H         37.86888        46.66760         3.42311
O         38.11886        49.76610        -0.89327
H         38.35552        50.63591        -1.27736
O         42.65121        57.25665         3.76464
H         41.72089        57.33813         4.06942
H         30.22267        56.51768        -2.70746
H         29.13913        58.60014        -3.28958
H         31.17320        62.37337        -2.81399
H         29.17449        61.07451        -3.50426
H         32.40125        52.18946        -1.57136
H         31.27224        54.37059        -2.21367
H         33.45476        62.39782        -1.83789
H         34.48495        48.06858        -0.16388
H         33.39888        50.14929        -0.56604
H         35.72730        62.39829        -0.92621
H         36.96552        43.83779         0.14004
H         35.77470        45.88938        -0.01074
H         37.95774        62.45101         0.08472
H         39.24894        39.67240        -0.44806
H         37.99752        41.58037         0.52316
H         40.22012        62.51033         0.87382
H         41.75058        35.60157        -1.64292
H         40.51465        37.64037        -1.11670
H         42.67669        62.58015         1.40996
H         45.18751        32.39128        -2.60094
H         43.02222        33.58001        -2.30491
H         45.09040        62.57348         1.33659
H         47.29607        33.31669        -1.72266
H         48.50110        35.50471        -1.53156
H         47.51011        62.59029         1.12199
H         49.74900        37.61065        -1.19800
H         50.99445        39.66613        -0.77025
H         49.90879        62.59546         0.62113
H         52.23192        41.78043        -0.56208
H         53.45956        43.92080        -0.40090
H         52.33291        62.59512         0.17053
H         54.63396        46.06523        -0.37955
H         55.74551        48.20516        -0.69675
H         54.28115        61.75822        -1.39559
H         56.85260        50.36313        -1.11845
H         57.93982        52.49422        -1.67478
H         57.30919        62.52529        -0.55193
H         57.78265        55.12520        -3.50860
H         60.24352        56.65152        -2.37732
H         59.75762        62.43983        -0.95228
H         61.62472        58.72215        -2.13863
H         61.78169        61.15180        -1.61941
