         732
 CSIRO Nanostructure Databank - Neutral Graphene Oxide Data Set
C         23.21450        24.63409        -2.04951
C         22.02439        25.33030        -2.24701
C         23.05053        27.39091        -1.44490
C         21.93655        26.68897        -1.94564
C         22.98094        28.81055        -1.13964
C         21.75671        29.52426        -1.17351
C         22.88552        31.62424        -0.64692
C         21.70363        30.87740        -0.89862
C         22.85087        33.04443        -0.40491
C         21.67238        33.75764        -0.16410
C         22.88730        35.87461         0.20996
C         21.67739        35.13089         0.09601
C         22.88816        37.30748         0.49273
C         21.70845        38.00980         0.75665
C         22.88212        40.14795         0.78898
C         21.70393        39.40616         0.87947
C         22.87229        41.61018         0.72452
C         21.66583        42.31657         0.51362
C         22.86137        44.43657         0.39605
C         21.66403        43.69255         0.36000
C         22.85418        45.88309         0.21184
C         21.64279        46.59257         0.05409
C         22.84416        48.68307        -0.10436
C         21.64303        47.97403        -0.10095
C         25.79468        23.21302        -1.72846
C         25.58504        24.57040        -1.26850
C         24.35574        25.29036        -1.54571
C         25.43186        27.38327        -0.75656
C         24.27637        26.68462        -1.24578
C         25.39984        28.79508        -0.60233
C         24.16746        29.52076        -0.80301
C         25.35522        31.65886        -0.33451
C         24.12905        30.92946        -0.62184
C         25.35636        33.03106        -0.22995
C         24.12829        33.82464        -0.57319
C         25.35434        35.92048         0.09962
C         24.10839        35.21065         0.02513
C         25.35791        37.36154         0.25236
C         24.12567        38.03402         0.45366
C         25.35692        40.15539         0.70078
C         24.12875        39.45198         0.65084
C         25.35037        41.59655         1.13403
C         24.08077        42.32845         0.77040
C         25.33350        44.46448         0.64257
C         24.08884        43.74196         0.61351
C         25.33254        45.88905         0.42943
C         24.07866        46.59913         0.20108
C         25.33003        48.76473         0.02584
C         24.07518        48.01765         0.04347
C         25.38845        50.13546        -0.00556
C         27.88265        22.96261        -0.44368
C         26.90966        22.48790        -1.43733
C         27.75507        24.45792        -0.08986
C         26.63295        25.23419        -0.62440
C         27.76105        27.33841         0.07158
C         26.60991        26.65226        -0.40815
C         27.78530        28.74310        -0.00894
C         26.60370        29.48616        -0.29966
C         27.81429        31.63743        -0.17128
C         26.60928        30.92688        -0.23428
C         27.87413        33.06170        -0.04362
C         26.57412        33.76009         0.27114
C         27.80352        35.97147        -0.22270
C         26.55465        35.23159        -0.02380
C         27.83333        37.40592         0.08062
C         26.58664        38.07682         0.28134
C         27.83836        40.20130         0.51872
C         26.58231        39.48869         0.51451
C         27.82783        41.63619         0.62353
C         26.60502        42.33161         0.74893
C         27.82089        44.45012         0.69541
C         26.57532        43.74532         0.69815
C         27.76012        45.90897         0.86662
C         26.52671        46.60020         0.46052
C         27.85673        48.75550         0.25883
C         26.61342        47.98301        -0.12620
C         27.84149        50.19784         0.05347
C         26.62870        50.84383        -0.06938
C         30.58233        20.30868        -0.19673
C         29.42913        20.96937        -0.63083
C         30.20958        22.98634         0.48828
C         29.20015        22.29353        -0.23415
C         29.90295        24.30481         0.98167
C         28.92065        25.14409         0.49490
C         30.29932        27.41533         0.82525
C         28.93567        26.61736         0.64229
C         30.36180        28.79515         0.25631
C         29.08501        29.42460        -0.14306
C         30.33762        31.65429        -0.26667
C         29.07263        30.92534        -0.38482
C         30.35010        33.02470        -0.10042
C         29.08782        33.73626        -0.04373
C         30.34582        35.96572         0.10910
C         29.13318        35.21097        -0.19877
C         30.32503        37.35709         0.13498
C         29.06363        38.08315         0.15007
C         30.30136        40.23848         0.31870
C         29.05926        39.51072         0.34827
C         30.28014        41.65173         0.36126
C         29.06447        42.35578         0.51360
C         30.30767        44.53699         0.66673
C         29.04857        43.79181         0.61664
C         30.31495        45.94289         0.87957
C         29.03272        46.67803         1.00411
C         30.22623        48.89354         0.94160
C         28.99497        48.12749         0.67940
C         30.26763        50.28957         0.47333
C         29.11440        50.91776         0.03979
C         30.36611        52.91105        -0.67686
C         29.19610        52.23183        -0.56359
C         32.87358        18.79617         1.05068
C         32.77348        20.26891         1.03496
C         31.60785        20.99616         0.46039
C         32.77018        23.17132         0.80033
C         31.51952        22.41010         0.67024
C         32.87439        24.56424         0.91454
C         31.74757        25.39968         1.27572
C         32.87261        27.52058         0.89826
C         31.59842        26.71600         0.89132
C         32.83389        28.85004         0.20300
C         31.55179        29.46837         0.01470
C         32.83736        31.64017        -0.33686
C         31.56977        30.86666        -0.59322
C         32.80860        33.09015        -0.22691
C         31.60783        33.76062        -0.04237
C         32.85564        35.95330         0.13227
C         31.59404        35.19093         0.47193
C         32.82226        37.40775         0.18314
C         31.57470        38.10819         0.23105
C         32.79525        40.27090         0.30486
C         31.55240        39.52449         0.25612
C         32.80221        41.67909         0.32580
C         31.52929        42.42397         0.01579
C         32.75947        44.54249         0.61554
C         31.52989        43.85350         0.49381
C         32.74637        45.93894         0.86484
C         31.53293        46.65019         0.95991
C         32.78058        48.88179         0.83327
C         31.52820        48.13737         1.14590
C         32.80008        50.20697         0.52691
C         31.55306        51.00684         0.50823
C         32.92422        53.01727        -0.40519
C         31.60093        52.42210        -0.05123
C         32.98179        54.36534        -0.83555
C         35.35631        18.80910         1.11303
C         34.07553        18.14942         1.07793
C         35.34609        20.28150         1.30372
C         34.05136        21.03235         1.12091
C         35.35938        23.10284         0.39877
C         34.01502        22.35890         0.37514
C         35.35389        24.60779         0.38045
C         34.07999        25.31570         0.59756
C         35.30757        27.43918         0.40274
C         34.08073        26.69711         0.55738
C         35.29704        28.82905         0.14417
C         34.03094        29.51827        -0.06004
C         35.26267        31.68184        -0.77850
C         34.02348        30.94614        -0.33289
C         35.28397        33.14581        -0.35067
C         34.07518        33.82001        -0.20012
C         35.26691        36.03889        -0.49795
C         34.02966        35.26976        -0.10215
C         35.29424        37.44450         0.05423
C         34.04413        38.12836         0.22437
C         35.25806        40.27906         0.43227
C         34.04172        39.56233         0.35356
C         35.26597        41.69010         0.45931
C         34.02163        42.40595         0.42560
C         35.26849        44.52970         0.64903
C         34.02499        43.83073         0.53700
C         35.29755        45.93072         0.86252
C         34.02829        46.63603         1.08329
C         35.33141        48.83156         0.79152
C         34.04653        48.14295         1.02368
C         35.32031        50.17879         0.48518
C         34.06397        50.79752        -0.06673
C         35.37647        52.93989        -0.40775
C         34.10715        52.30203        -0.20415
C         35.41137        54.27911        -0.91322
C         34.19056        54.96406        -1.12655
C         37.74889        16.05339         0.28952
C         36.59394        16.71357         0.60806
C         37.84107        18.81667         0.77988
C         36.57380        18.12931         0.85935
C         37.95000        20.25130         1.27229
C         36.63592        21.03387         1.24901
C         37.81848        23.17022         0.76198
C         36.62907        22.44998         0.79430
C         37.82582        24.62425         0.75184
C         36.59067        25.35026         0.67880
C         37.73001        27.54796         0.88441
C         36.53521        26.74357         0.63629
C         37.74959        28.94188         0.42069
C         36.54226        29.53659         0.02368
C         37.83470        31.69941        -0.33452
C         36.56246        30.91778        -0.51243
C         37.78919        33.17422        -0.26944
C         36.54805        33.86596        -0.31017
C         37.76221        36.00586        -0.21412
C         36.55102        35.28404        -0.26030
C         37.74556        37.44500        -0.08837
C         36.50683        38.11589         0.15744
C         37.77590        40.31160         0.23601
C         36.54885        39.53391         0.67020
C         37.75323        41.69379         0.27752
C         36.51287        42.41489         0.45405
C         37.76601        44.55291         0.67596
C         36.51628        43.81950         0.54837
C         37.75401        45.92859         0.97208
C         36.52448        46.65285         0.98145
C         37.80184        48.79842         0.84567
C         36.54568        48.08859         0.96787
C         37.81993        50.19655         0.62712
C         36.55051        51.00281         0.71663
C         37.84018        52.94017        -0.21876
C         36.59614        52.28686        -0.06797
C         37.86574        54.24984        -0.78919
C         36.68414        54.91305        -1.13605
C         37.95728        56.78941        -2.09864
C         36.76627        56.22827        -1.73971
C         40.25844        14.63578        -0.23478
C         40.19214        16.04824        -0.18171
C         38.99994        16.73822         0.14737
C         40.30665        18.86598         0.40323
C         39.01233        18.15860         0.39774
C         40.32704        20.22812         0.66676
C         39.03573        21.00037         0.46161
C         40.28250        23.13769         0.91290
C         39.08936        22.46507         0.84403
C         40.29957        24.58928         0.83079
C         39.04367        25.30984         0.82226
C         40.27160        27.52123         0.66684
C         39.06056        26.77201         0.99451
C         40.26121        28.88983         0.48309
C         39.01408        29.63767         0.38728
C         40.28828        31.73876         0.02322
C         39.05217        31.00976         0.12210
C         40.27447        33.16981        -0.12334
C         39.01350        33.87177        -0.17789
C         40.23863        35.99703        -0.32609
C         39.01272        35.29889        -0.20919
C         40.18430        37.45009        -0.53128
C         38.95506        38.18586        -0.17665
C         40.24882        40.32171        -0.09803
C         38.99414        39.59244        -0.05336
C         40.26715        41.71990         0.10103
C         38.98618        42.48845        -0.09450
C         40.24714        44.54288         0.64545
C         39.00705        43.87567         0.48859
C         40.29570        45.93893         0.98900
C         39.01939        46.64360         1.38398
C         40.24474        48.80596         0.98255
C         39.03058        48.09757         0.97043
C         40.25910        50.19607         0.80783
C         39.04640        50.90188         0.55983
C         40.33129        52.98275         0.13498
C         39.06433        52.30243         0.21140
C         40.40062        54.24332        -0.59544
C         39.14218        55.04761        -0.77322
C         40.42089        56.59818        -2.30596
C         39.20959        56.13184        -1.82758
C         40.54540        57.87506        -2.95960
C         42.65971        14.68103        -0.67850
C         41.44642        13.97258        -0.49836
C         42.69682        16.06402        -0.65420
C         41.40004        16.84207        -0.63287
C         42.75533        18.83662         0.03171
C         41.52514        18.18535         0.04654
C         42.88219        20.18086         0.61839
C         41.56443        20.91378         0.99713
C         42.83374        23.09744         0.76783
C         41.57432        22.41516         1.26425
C         42.78613        24.56699         0.84074
C         41.49269        25.28051         0.72432
C         42.75199        27.45830         0.47904
C         41.45729        26.70453         0.20809
C         42.68445        28.89736         0.03280
C         41.50847        29.59192         0.14739
C         42.73566        31.74081        -0.19408
C         41.50094        31.03382        -0.02232
C         42.74214        33.16627        -0.19626
C         41.49196        33.88163        -0.17584
C         42.71721        36.04106        -0.32568
C         41.48559        35.32046        -0.29925
C         42.74187        37.44399        -0.39768
C         41.49303        38.20604        -0.56389
C         42.72158        40.30552        -0.11318
C         41.49323        39.63448        -0.22659
C         42.74750        41.70761         0.17467
C         41.49038        42.41505         0.29567
C         42.71483        44.50255         0.90367
C         41.47216        43.81366         0.55277
C         42.75299        45.96757         0.92726
C         41.50512        46.63687         1.05786
C         42.78771        48.81775         1.06689
C         41.50459        48.09893         1.43970
C         42.78702        50.19762         0.96531
C         41.49742        50.96779         1.17652
C         42.78134        53.03187         0.51594
C         41.50112        52.34837         0.57226
C         42.83956        54.28494        -0.42885
C         41.59536        54.74782        -1.04709
C         42.95975        56.48930        -2.31983
C         41.65204        55.71814        -2.22345
C         42.97735        57.75980        -2.81254
C         41.76728        58.44038        -3.18352
C         45.13724        16.17884        -1.17473
C         43.93082        16.80917        -0.77801
C         45.18616        18.92177        -0.53608
C         43.95865        18.19858        -0.46646
C         45.23457        20.33120        -0.19648
C         44.08338        20.98247         0.34181
C         45.24593        23.16616         0.19077
C         44.03723        22.42099         0.50785
C         45.21763        24.54714         0.08486
C         44.04093        25.32055         0.48400
C         45.24728        27.43748        -0.06038
C         43.93365        26.69641        -0.14411
C         45.20059        28.91807         0.24799
C         43.96550        29.54357        -0.41326
C         45.18122        31.73287        -0.40124
C         43.96641        31.04424        -0.29339
C         45.19841        33.15772        -0.37774
C         43.98306        33.85243        -0.25180
C         45.24433        35.99249        -0.49887
C         44.00078        35.32806         0.03579
C         45.18459        37.43173        -0.72218
C         43.95305        38.17302        -0.38244
C         45.19396        40.31273        -0.28153
C         43.97064        39.59159        -0.28107
C         45.21781        41.71241        -0.07232
C         43.98643        42.37893         0.21932
C         45.26717        44.54503         0.52394
C         44.04565        43.75561         0.71115
C         45.24772        45.93729         0.74174
C         44.00172        46.64823         0.93752
C         45.27097        48.77224         1.05557
C         44.02209        48.07847         0.99824
C         45.27695        50.20415         1.05637
C         44.03735        50.92059         0.87263
C         45.29733        53.12750         0.73724
C         44.03636        52.30682         0.69572
C         45.37838        54.16298        -0.37040
C         44.15350        54.57421        -1.07004
C         45.53208        56.36601        -2.21023
C         44.21292        55.74401        -2.04322
C         46.32006        16.88327        -1.26541
C         47.63518        18.99057        -1.03582
C         46.38507        18.26615        -0.94833
C         47.65704        20.39669        -0.79052
C         46.45843        21.02984        -0.36868
C         47.61938        23.19361        -0.71411
C         46.57269        22.45298         0.09387
C         47.32912        24.51833        -1.05223
C         46.30839        25.28317        -0.47695
C         47.70198        27.42833        -0.20592
C         46.38284        26.73796        -0.37029
C         47.70760        28.92290        -0.02750
C         46.44789        29.66090        -0.16702
C         47.72251        31.71278        -0.80519
C         46.44176        30.99441        -0.43160
C         47.69004        33.19073        -0.50197
C         46.47830        33.86611        -0.44468
C         47.71695        36.01970        -0.70823
C         46.45244        35.31241        -0.53738
C         47.72584        37.40579        -0.77684
C         46.48463        38.18692        -0.84082
C         47.69365        40.39257        -0.59237
C         46.49863        39.56727        -0.21565
C         47.69934        41.75941        -0.38489
C         46.45805        42.45834        -0.08324
C         47.69153        44.61590         0.10054
C         46.46485        43.85837         0.15562
C         47.72801        45.94345         0.50627
C         46.49955        46.65588         0.78822
C         47.73857        48.68889         1.64016
C         46.50213        48.03920         1.04254
C         47.75590        50.21917         1.52330
C         46.50687        50.93449         1.12552
C         47.77554        53.01497         0.62093
C         46.54986        52.28814         0.78274
C         47.81157        54.24886        -0.03998
C         46.59165        54.74106        -0.68401
C         46.63793        55.84879        -1.62091
C         50.05856        19.04065        -1.34839
C         48.86505        18.34582        -1.33019
C         50.11278        20.44679        -1.14015
C         48.90030        21.14005        -0.91517
C         50.14869        23.31279        -1.03582
C         48.88979        22.58639        -0.93384
C         50.25676        24.74555        -0.93252
C         49.15441        25.60007        -1.14251
C         50.21426        27.48888        -0.09630
C         49.02007        26.83251        -0.50913
C         50.19000        28.93585         0.11545
C         48.98025        29.65525        -0.13008
C         50.19530        31.75748        -0.17097
C         48.97641        31.03054        -0.30475
C         50.20778        33.17053        -0.35192
C         48.95225        33.90012        -0.52571
C         50.26836        35.99037        -0.95736
C         48.96012        35.28545        -0.65464
C         50.25487        37.47591        -0.69536
C         48.98177        38.15739        -0.94532
C         50.20386        40.36571        -0.65854
C         48.93710        39.67311        -0.92439
C         50.15178        41.81174        -0.64664
C         48.94800        42.49451        -0.54700
C         50.17361        44.77610        -0.62182
C         48.88885        43.97663        -0.50828
C         50.25531        46.10510         0.01480
C         49.04394        46.63297         0.66839
C         50.32066        48.84538         0.97169
C         49.08751        48.03754         1.22907
C         50.32173        50.23386         1.15722
C         49.05500        50.96308         1.46116
C         50.30107        53.19165         1.01215
C         49.01377        52.44093         1.17411
C         50.25661        54.42221         0.20741
C         49.07411        54.91895        -0.24216
C         52.61485        20.49635        -1.18498
C         51.37844        21.16764        -1.12518
C         52.64033        23.28936        -0.83233
C         51.38389        22.59241        -0.99817
C         52.67828        24.68192        -0.54720
C         51.46034        25.41482        -0.54345
C         52.71966        27.57853        -0.10240
C         51.43221        26.80549        -0.23192
C         52.55168        28.78807         0.82998
C         51.37259        29.63227         0.35327
C         52.60904        31.77676         0.34675
C         51.39450        31.05308         0.21138
C         52.63935        33.16510         0.10347
C         51.43395        33.87602        -0.22633
C         52.66828        36.00799        -0.20595
C         51.48360        35.29674        -0.39720
C         52.68925        37.47593        -0.29769
C         51.41985        38.19433        -0.50612
C         52.61165        40.40016        -0.16595
C         51.37669        39.64753        -0.47265
C         52.68254        41.81899        -0.52550
C         51.43715        42.51342        -0.85556
C         52.73280        44.69690        -0.53234
C         51.45617        44.03751        -0.84692
C         52.70436        46.08110        -0.21710
C         51.48595        46.77059         0.11846
C         52.73584        48.90619         0.53360
C         51.52971        48.17499         0.56026
C         52.76757        50.29175         0.86256
C         51.53596        50.98682         1.04370
C         52.77626        53.09301         1.16077
C         51.56525        52.41642         1.09515
C         53.82672        21.17765        -1.08709
C         55.13671        23.27792        -0.70607
C         53.87464        22.56795        -0.88671
C         55.15571        24.62951        -0.28000
C         53.90890        25.35992        -0.19282
C         55.13541        27.32528         0.68897
C         53.89914        26.69024         0.21286
C         55.13818        28.83658         0.98637
C         53.83575        29.59563         0.97946
C         55.14342        31.76483         0.60035
C         53.84431        31.07487         0.77229
C         55.10888        33.14821         0.41122
C         53.88321        33.87941         0.18688
C         55.14160        36.00908         0.07343
C         53.89640        35.29246         0.06380
C         55.14980        37.49857         0.26504
C         53.86727        38.16533        -0.14672
C         55.16911        40.35301        -0.30272
C         53.90583        39.63914        -0.03667
C         55.15707        41.74358        -0.43149
C         53.90475        42.49700        -0.53327
C         55.22799        44.61402        -0.61834
C         53.92302        43.93198        -0.62691
C         55.25703        46.10202        -0.46078
C         53.95614        46.84796        -0.35030
C         55.33844        49.02226         0.09752
C         53.97778        48.30819        -0.02543
C         55.27290        50.29665         0.91077
C         54.00804        51.00972         0.97207
C         53.98938        52.39220         1.15977
C         57.57455        23.28450        -0.73770
C         56.37495        22.63784        -0.96085
C         57.61727        24.60254        -0.21989
C         56.39595        25.30028        -0.02411
C         57.61946        27.34051         0.74375
C         56.42378        26.66489         0.42924
C         57.61097        28.81020         0.81663
C         56.40184        29.54406         0.75562
C         57.58165        31.67437         0.34812
C         56.38399        31.00571         0.59859
C         57.66360        33.13429         0.41696
C         56.35649        33.91509         0.47316
C         57.60253        36.02494        -0.13285
C         56.36117        35.34201         0.11251
C         57.60250        37.43429        -0.35679
C         56.39675        38.19092        -0.24085
C         57.63137        40.29320        -0.63219
C         56.39337        39.58817        -0.39863
C         57.63314        41.69298        -0.61975
C         56.42104        42.44572        -0.48005
C         57.70210        44.55091        -0.14746
C         56.46348        43.84479        -0.39184
C         57.69722        45.89147         0.24043
C         56.44045        46.66587         0.26336
C         57.74552        48.78764         0.93632
C         56.44867        48.11406         0.63217
C         57.68452        50.10139         1.33453
C         56.43478        50.79891         1.43480
C         60.04509        24.44818         0.25185
C         58.84848        25.20913         0.23915
C         60.00696        26.91262         1.49547
C         58.83380        26.52701         0.79322
C         60.01576        29.21047         1.42520
C         58.84497        29.57960         0.76567
C         60.07926        31.72392         0.15561
C         58.82967        30.88934         0.00952
C         60.04394        33.11778        -0.24405
C         58.84988        33.85190        -0.09107
C         60.02539        35.92590        -0.66515
C         58.82020        35.26236        -0.28644
C         60.04095        37.36625        -0.80486
C         58.83505        38.11348        -0.66539
C         60.10202        40.19706        -0.97105
C         58.86252        39.53767        -0.77809
C         60.17337        41.67687        -1.03831
C         58.87617        42.45566        -0.84654
C         60.18665        44.45197        -0.17410
C         58.95241        43.83919        -0.33970
C         60.26486        45.80590         0.42405
C         58.92695        46.55690         0.69410
C         60.21762        48.64197         0.92800
C         58.98225        48.02621         0.85710
C         61.19035        24.90442         0.88226
C         61.16013        26.13522         1.55045
C         61.20397        29.96231         1.39024
C         61.22384        31.20820         0.74473
C         61.21866        33.79561        -0.65779
C         61.19954        35.15833        -0.87177
C         61.24987        38.05796        -1.04157
C         61.28015        39.44051        -1.10112
C         61.41170        42.38047        -0.67902
C         61.40569        43.70026        -0.35560
C         61.45624        46.64062         0.26545
C         61.43106        47.96237         0.60313
O         28.50682        35.61817        -1.47345
O         59.46105        42.25722        -2.18188
O         55.11652        27.86181         2.06911
O         49.25441        44.67315        -1.76101
O         45.69833        37.93870        -2.03030
O         42.82924        54.41451         0.99957
O         53.18543        40.11154         1.16742
O         40.77333        37.89182        -1.81264
O         27.26855        23.38507         0.81036
O         53.72962        30.47611         2.14682
O         34.04461        47.44600         2.31924
O         43.43737        43.89903         2.03867
O         55.47558        45.56124        -1.78156
O         44.15154        54.33378        -2.52114
O         48.93835        38.94502        -2.21180
O         43.69347        25.15172         1.87224
O         31.52537        52.17959         1.39635
O         33.21033        20.94093         2.29373
O         47.71932        28.03270         1.15454
O         53.78014        47.87355        -1.41809
O         30.78737        48.64698         2.28902
O         59.65031        45.84746         1.74933
O         49.36031        46.90080         2.10074
O         57.15053        33.66775         1.68693
O         56.03257        47.12735         1.62434
O         35.96609        20.81382         2.54905
O         38.35774        27.28063         2.17436
O         29.09646        29.98533        -1.53195
O         35.48542        23.84493        -0.88143
O         29.35760        27.20164         1.91631
O         51.49450        43.29896        -2.09719
O         30.73142        24.77784         2.00089
O         37.46359        31.10233        -1.66157
O         60.02636        28.08481         2.25911
O         38.68888        20.96229        -0.88641
O         28.25984        46.34620         2.21480
O         49.56026        53.24816         2.28087
O         48.40109        50.73077         2.75526
O         42.38332        20.23406         2.00536
O         48.13981        25.16030        -1.99500
O         39.07164        55.81145         0.49495
H         38.21890        56.29743         0.49362
O         33.04641        27.88862         2.32577
H         32.94610        27.07318         2.86296
O         41.60307        54.86970        -3.41826
H         42.47679        54.41028        -3.46811
O         34.01123        50.33187        -1.48105
H         34.77811        50.72691        -1.94954
O         25.37327        41.55401         2.61372
H         25.42377        42.48075         2.93212
O         52.21181        28.27239         2.12976
H         52.50166        28.93945         2.79152
O         41.13307        17.16347        -2.05304
H         40.98808        16.31324        -2.52006
O         31.55888        35.06775         1.94193
H         32.39343        34.63645         2.22402
O         31.50908        42.53415        -1.46359
H         31.51933        41.62093        -1.82290
O         47.81729        31.63254        -2.27215
H         47.06959        32.14473        -2.64695
O         31.58749        30.69119        -2.05117
H         30.69463        30.34603        -2.30314
O         24.22224        34.06906        -2.04111
H         23.40885        34.55046        -2.30529
O         26.76682        47.74227        -1.58295
H         25.90543        47.40924        -1.91520
O         45.30315        53.88327         1.99857
H         45.32322        53.23493         2.73407
O         35.16826        36.19093        -1.96399
H         36.00474        36.59857        -2.27450
O         39.01102        46.65500         2.85486
H         39.84522        47.11026         3.13955
O         58.73662        30.56150        -1.43210
H         57.97246        29.95536        -1.53966
O         41.43733        48.14782         2.90950
H         41.46896        49.10496         3.15696
O         41.66991        22.59025         2.71226
H         42.17569        21.81783         3.05853
O         44.08273        35.44552         1.50798
H         44.86024        34.92476         1.80292
O         47.54929        48.38798         3.04383
H         48.06725        49.05422         3.55337
O         36.45751        51.43438         2.13567
H         36.36050        50.62428         2.68183
O         26.47780        33.69596         1.75446
H         26.48533        32.74750         2.00722
O         36.67069        39.40486         2.13593
H         36.67500        40.31157         2.51071
O         50.41531        35.89883        -2.42415
H         49.74844        36.49742        -2.82656
O         35.10028        31.75601        -2.22734
H         36.00862        31.74313        -2.61349
O         55.75632        49.42859        -1.22809
H         55.20732        48.91726        -1.87266
O         38.89240        42.69914        -1.56286
H         38.93877        41.81395        -1.98479
O         33.78791        21.96900        -1.00754
H         34.20388        22.66661        -1.56961
O         38.41844        20.18676         2.63031
H         37.62517        20.25739         3.21346
O         45.10619        29.07472         1.69392
H         45.94690        28.70927         2.06047
O         53.03583        28.15495        -1.41892
H         52.98392        27.43566        -2.08380
O         44.10404        29.23289        -1.84906
H         43.36679        29.67800        -2.31943
O         47.10586        22.39342         1.47095
H         46.38401        22.07508         2.05403
O         55.21115        37.68675         1.72946
H         54.38747        37.31809         2.11390
O         42.88079        27.52554         1.91207
H         43.67969        28.07171         2.12471
O         41.24658        26.61209        -1.23690
H         40.52212        25.97229        -1.40141
O         43.71022        26.45748        -1.55362
H         43.74346        27.33706        -2.00239
O         41.41064        51.12496         2.65573
H         40.71341        51.79100         2.84196
O         46.70448        39.25566         1.21999
H         46.61436        40.09266         1.72484
H         23.24820        23.56007        -2.27546
H         21.14346        24.80281        -2.63835
H         20.98385        27.20724        -2.11678
H         20.81997        28.99859        -1.40181
H         20.73078        31.38716        -0.92421
H         20.70728        33.23111        -0.14486
H         20.71298        35.62954         0.25906
H         20.75078        37.47855         0.83722
H         20.74098        39.90979         1.03869
H         20.71140        41.77706         0.45511
H         20.70274        44.19466         0.19225
H         20.68069        46.06514         0.06160
H         22.81568        49.77268        -0.23486
H         20.69221        48.51110        -0.22133
H         25.06792        22.78785        -2.43527
H         24.46820        50.73570         0.02325
H         27.08150        21.52812        -1.94557
H         26.59013        51.93815        -0.15458
H         30.68883        19.23295        -0.39385
H         28.66265        20.41297        -1.18706
H         30.40017        53.82716        -1.28363
H         28.29494        52.64371        -1.03903
H         31.94887        18.20194         1.01113
H         32.05435        54.94002        -0.95999
H         34.05581        17.05071         1.05160
H         34.19015        55.99979        -1.48914
H         37.69814        14.97123         0.10832
H         35.66453        16.13356         0.68029
H         37.94348        57.72723        -2.67082
H         35.84079        56.75554        -2.00467
H         39.36767        14.03550        -0.00414
H         39.64183        58.45235        -3.19805
H         43.58655        14.09934        -0.78153
H         41.46455        12.87423        -0.50658
H         43.92859        58.29312        -2.95128
H         41.84180        59.44181        -3.62850
H         45.13614        15.11308        -1.44038
H         45.62219        57.27326        -2.82397
H         47.22049        16.35239        -1.60059
H         47.60028        56.34061        -1.81395
H         50.98178        18.48191        -1.55228
H         48.89117        17.26370        -1.51412
H         51.19843        54.92350        -0.05781
H         49.09466        55.85275        -0.81925
H         52.64511        19.40376        -1.29071
H         52.78653        54.18959         1.22464
H         54.75457        20.59131        -1.12315
H         54.93089        52.95138         1.23812
H         58.50431        22.74155        -0.95024
H         56.39500        21.61040        -1.34759
H         58.59309        50.63441         1.64695
H         56.43176        51.76380         1.96200
H         60.06460        23.45324        -0.20936
H         60.27692        49.72537         1.10119
H         62.09901        24.28775         0.89640
H         62.02499        26.48934         2.12537
H         62.07941        29.61076         1.95030
H         62.12904        31.82833         0.81240
H         62.14662        33.23080        -0.82116
H         62.12594        35.64551        -1.20166
H         62.19316        37.51091        -1.16131
H         62.23968        39.94425        -1.27817
H         62.35671        41.82163        -0.63004
H         62.35836        44.18512        -0.10033
H         62.37032        46.20215        -0.15872
H         62.35032        48.55984         0.52336
