         344
 CSIRO Nanostructure Databank - Neutral Graphene Oxide Data Set
C          1.42675         4.13297         1.68996
C          0.12109         4.68136         1.43742
C          1.22384         6.58713         0.36709
C         -0.02682         5.83083         0.73116
C          1.04286         7.78215        -0.62869
C         -0.17620         8.61105        -0.31501
C          1.16572        10.48161         0.65186
C         -0.12508         9.84647         0.19098
C          1.17012        11.99084         0.51536
C         -0.00992        12.77198         0.73013
C          1.15757        14.76621        -0.18496
C         -0.02132        14.11593         0.49327
C          1.20871        16.27213        -0.08539
C          0.02134        16.99723        -0.16714
C          1.22258        19.11672        -0.14867
C          0.02090        18.39305        -0.18576
C          1.23507        20.56807        -0.18260
C          0.01283        21.31676        -0.37424
C          1.16085        23.48147        -0.11942
C         -0.02897        22.67507        -0.40461
C          1.16850        24.94130        -0.39973
C          0.03378        25.71433        -0.30442
C          1.29650        27.79092        -0.65818
C          0.07910        27.12033        -0.48619
C          1.35130        29.23071        -0.66645
C          3.79032         3.86275         1.25629
C          2.55105         4.52513         0.97358
C          3.57305         6.40810        -0.49380
C          2.32280         5.60636        -0.12297
C          3.56674         7.86158        -0.95587
C          2.32440         8.58939        -0.52088
C          3.64167        10.56584         0.08109
C          2.37222         9.84994        -0.02203
C          3.64034        11.91608         0.35666
C          2.39932        12.67108         0.36187
C          3.68663        14.79124         0.14681
C          2.43963        14.08211         0.20684
C          3.69339        16.25092         0.01820
C          2.45274        16.96418        -0.04653
C          3.69634        19.10955        -0.01975
C          2.45885        18.39918        -0.07119
C          3.70626        20.54414        -0.07218
C          2.45553        21.24597        -0.13764
C          3.74748        23.38812        -0.39313
C          2.47832        22.71725        -0.06584
C          3.71892        24.78289        -0.89052
C          2.43925        25.57569        -0.80917
C          3.76186        27.70974        -0.72951
C          2.51862        27.05189        -0.76379
C          3.79138        29.15368        -0.63169
C          2.54823        29.88171        -0.65385
C          6.25449         3.60556         0.64375
C          4.90401         3.88296         0.40409
C          6.04270         6.33244        -1.01925
C          4.70813         5.74007        -0.78231
C          6.09406         7.81145        -0.81205
C          4.88400         8.51977        -0.59739
C          6.13188        10.52334         0.06016
C          4.89128         9.85516        -0.14363
C          6.16950        11.93560         0.42171
C          4.88534        12.65836         0.74479
C          6.20257        14.78291         0.04179
C          4.88507        14.09973         0.27790
C          6.16272        16.27482         0.26802
C          4.91341        16.96427         0.11656
C          6.15665        19.11171         0.22615
C          4.92271        18.39978         0.10770
C          6.16577        20.54046         0.13581
C          4.92994        21.25563        -0.02913
C          6.19405        23.42073        -0.27214
C          4.93771        22.69056        -0.25722
C          6.23127        24.78377        -0.49781
C          5.05122        25.51536        -1.09985
C          6.20914        27.66616        -0.53936
C          5.00489        26.98774        -0.71783
C          6.23557        29.11044        -0.45174
C          5.00351        29.82189        -0.51835
C          8.58098         3.55325         0.07513
C          7.34612         4.16647        -0.11047
C          8.65587         6.26143        -0.98274
C          7.30379         5.49331        -0.85263
C          8.60038         7.74953        -0.65652
C          7.33485         8.45893        -0.58470
C          8.61598        10.51718        -0.03656
C          7.32586         9.81778        -0.16406
C          8.63317        11.98345         0.23146
C          7.33911        12.64047         0.48064
C          8.63429        14.84469         0.60175
C          7.32824        14.10911         0.83572
C          8.59680        16.22896         0.69971
C          7.34498        16.95934         0.53823
C          8.59085        19.11579         0.62190
C          7.37342        18.40648         0.49657
C          8.59775        20.51328         0.40747
C          7.40614        21.22646         0.18930
C          8.68818        23.39502        -0.19488
C          7.42037        22.73618         0.28048
C          8.70614        24.80278        -0.28435
C          7.46260        25.52391        -0.38180
C          8.68306        27.65256        -0.31980
C          7.46353        26.93985        -0.44043
C          8.69353        29.09100        -0.28723
C          7.45363        29.78838        -0.34046
C         11.09286         3.52998         0.04844
C          9.85179         4.20358        -0.12673
C         11.07565         6.36503        -0.05239
C          9.83426         5.58605        -0.34578
C         11.07108         7.79021        -0.53390
C          9.80186         8.44736        -0.63776
C         11.02449        10.68903        -0.57801
C          9.74958         9.94040        -0.85316
C         11.02642        12.05229        -0.50477
C          9.72651        12.82093        -0.41860
C         11.06090        14.85059         0.20172
C          9.85878        14.17616         0.25255
C         11.16667        16.18499         0.80094
C          9.84447        16.93609         1.01201
C         11.14454        19.12439         0.89403
C          9.82238        18.44309         1.23020
C         11.10989        20.63067         1.02853
C          9.91514        21.20258         0.26427
C         11.20836        23.41636         0.06303
C          9.95065        22.66859        -0.07598
C         11.23139        24.79936        -0.52457
C          9.93331        25.52989        -0.31835
C         11.15078        27.66209        -0.09293
C          9.92640        26.94030        -0.25724
C         11.15142        29.09158        -0.09433
C          9.91647        29.77953        -0.20488
C         13.58437         3.50504        -0.10074
C         12.33055         4.20275        -0.19737
C         13.51953         6.33570        -0.73435
C         12.31671         5.59860        -0.39262
C         13.54082         7.80880        -0.61580
C         12.27519         8.48320        -0.58598
C         13.48135        10.65440        -1.06352
C         12.32489         9.96913        -0.34728
C         13.48062        12.13869        -0.73983
C         12.28181        12.78356        -0.53093
C         13.50815        14.98450        -0.47258
C         12.18539        14.28530        -0.63034
C         13.57046        16.31544        -0.09268
C         12.49432        16.93824         0.79168
C         13.56744        19.16862         0.52027
C         12.34064        18.45374         0.64505
C         13.59727        20.59939         0.60746
C         12.39034        21.32469         0.64948
C         13.65953        23.41486         0.36861
C         12.40669        22.72507         0.36973
C         13.74066        24.83286        -0.13278
C         12.43984        25.58278        -0.08928
C         13.57925        27.70266         0.60691
C         12.38668        26.93904         0.08162
C         13.60975        29.15599         0.18995
C         12.38512        29.80420        -0.03590
C         16.03759         3.55235         0.22448
C         14.80547         4.16790        -0.15343
C         16.05490         6.37475        -0.33078
C         14.85902         5.57253        -0.59845
C         16.01854         7.80118        -0.44402
C         14.75518         8.51130        -0.60144
C         15.94881        10.68465        -0.66983
C         14.78214         9.96017        -0.72690
C         15.98211        12.12907        -0.88827
C         14.71814        12.87637        -0.86144
C         15.91720        15.06587        -1.22509
C         14.70715        14.26531        -0.81564
C         16.01254        16.41031        -0.52366
C         14.82975        17.02364        -0.14707
C         16.09820        19.10707         0.43309
C         14.79730        18.52645        -0.07087
C         16.11714        20.58287         0.71916
C         14.83779        21.31347         0.63309
C         16.11314        23.44715         1.02214
C         14.85201        22.71687         0.61413
C         16.14014        24.90774         0.63900
C         14.92908        25.59533         0.38760
C         16.10259        27.72287         0.52695
C         14.89694        26.99100         0.41888
C         16.07638        29.16969         0.44915
C         14.83038        29.83900         0.22996
C         18.46464         3.64448         0.66652
C         17.22324         4.27728         0.29840
C         18.44368         6.44392         0.18525
C         17.23076         5.70822         0.05872
C         18.44048         7.85161        -0.04348
C         17.21097         8.52551        -0.28720
C         18.48908        10.64927        -0.64478
C         17.20477        10.02842        -0.16033
C         18.48674        12.04299        -1.23485
C         17.18427        12.79282        -1.01704
C         18.52173        14.98061        -1.06248
C         17.21734        14.25819        -1.25226
C         18.51307        16.43022        -0.72234
C         17.28723        17.11589        -0.47810
C         18.56118        19.18502         0.00367
C         17.34127        18.45969        -0.03191
C         18.58425        20.60848         0.26877
C         17.38329        21.31888         0.53865
C         18.60017        23.43593         0.66549
C         17.39216        22.72201         0.66981
C         18.60199        24.88069         1.13365
C         17.33610        25.61531         0.75439
C         18.57182        27.76923         0.70829
C         17.33977        27.03107         0.63688
C         18.53122        29.19423         0.65128
C         17.28318        29.86925         0.51877
C         19.62498         4.35653         0.77582
C         20.84021         6.52515         0.62588
C         19.65636         5.77627         0.53233
C         20.84833         7.89538         0.34082
C         19.67530         8.57763        -0.01049
C         20.92713        10.68232        -0.64570
C         19.67281         9.98039        -0.44005
C         20.95357        12.03791        -0.76641
C         19.74125        12.81516        -0.85763
C         20.96595        14.95618        -0.60132
C         19.75676        14.19888        -0.79030
C         20.96630        16.31917        -0.55750
C         19.74504        17.09069        -0.54983
C         20.99123        19.24868        -0.30874
C         19.77776        18.50348        -0.28786
C         21.00537        20.60751        -0.08983
C         19.81261        21.33014         0.19603
C         21.02400        23.52042         0.39042
C         19.82571        22.75582         0.42667
C         21.01688        24.91472         0.50669
C         19.85531        25.63968         0.77375
C         21.01027        27.85516         0.80605
C         19.82769        27.08557         0.77596
C         20.96295        29.25397         0.77984
C         19.74860        29.92322         0.69894
O          2.88720        24.93486        -2.10734
O          6.64863         5.61824        -2.16290
O         10.54451        16.26530         2.12862
O          1.82179        23.21557         1.17330
O         18.02390        14.64682        -2.43950
O         14.24724         5.81917        -1.89870
O          9.02729        11.02758         1.27364
O         10.15611        21.55063        -1.11994
O          4.64627         4.35000        -0.90063
O         16.13816        19.56975         1.80819
O          9.27059        13.08040        -1.79304
H          8.42039        13.58443        -1.74208
O          0.98518        14.49689        -1.63591
H          0.93276        13.52225        -1.74022
O         13.07091        16.77337         2.12334
H         12.31936        16.66678         2.75138
O         14.04314        24.66351        -1.56853
H         13.17575        24.52345        -2.03030
O         10.88429        20.97657         2.43292
H         10.31931        20.26212         2.82563
O          7.38463        22.98639         1.74610
H          7.38337        23.95910         1.87694
O         11.79595        14.55223        -2.02802
H         10.97921        14.02636        -2.21124
O         11.07894         6.51061         1.44230
H         11.13287         5.60267         1.81379
O          5.32356        25.51186        -2.53363
H          4.44353        25.50786        -2.98087
O         13.24884        10.53593        -2.48803
H         13.97786        10.99025        -2.95936
O          1.85543         4.90879        -1.29086
H          2.58176         4.30873        -1.57038
O         18.56726        11.87856        -2.69482
H         18.52049        12.79091        -3.07001
O          4.82863        12.72038         2.23074
H          3.93479        13.04575         2.47473
O          1.30440        10.16649         2.07591
H          1.39712         9.18443         2.13000
O         11.36043        24.60422        -2.00978
H         10.68597        23.93817        -2.27028
O          1.70659         7.21501         1.59598
H          1.75176         6.51560         2.28410
O         13.38093        27.73251         2.06599
H         14.13171        28.23089         2.45347
O          0.85061         7.29469        -1.96224
H          1.73308         7.14964        -2.37653
O          7.08236        14.25496         2.24979
H          6.32319        13.66554         2.49504
O          9.41912        10.15520        -2.25580
H          9.46229        11.12513        -2.42867
O          3.51640         7.80584        -2.42623
H          4.30890         7.31985        -2.74174
O         15.61872        15.43658        -2.61158
H         16.49007        15.51033        -3.07001
O         12.61260        10.09826         1.07744
H         11.85575         9.72680         1.57882
O         18.58374        24.80248         2.60510
H         17.72392        24.37258         2.84786
O          6.58183        14.56919        -1.37311
H          5.87165        14.95279        -1.93181
O          9.04635         6.21853        -2.39369
H          8.21745         6.08538        -2.91487
O          9.61544        18.62523         2.67612
H         10.03153        17.84815         3.11881
O         14.76824        18.94766        -1.48862
H         14.12662        18.37728        -1.96429
O         16.07840        23.46575         2.50236
H         15.99644        22.53589         2.80832
O         17.18936        10.29628         1.29853
H         17.94254         9.80429         1.69104
H          1.51191         3.29392         2.39745
H         -0.75547         4.14280         1.82665
H         -1.02015         6.25916         0.53772
H         -1.14554         8.18323        -0.61445
H         -1.06256        10.39745         0.36212
H         -0.91060        12.28486         1.13098
H         -0.93728        14.69289         0.68287
H         -0.94066        16.47166        -0.23467
H         -0.94444        18.91206        -0.24020
H         -0.91527        20.76818        -0.58356
H         -0.95705        23.18587        -0.69952
H         -0.92948        25.24641        -0.05543
H         -0.84948        27.70221        -0.40354
H          0.40673        29.79326        -0.64465
H          3.86860         3.32626         2.21531
H          2.58586        30.98060        -0.62858
H          6.52194         2.96479         1.49841
H          5.01703        30.92072        -0.46301
H          8.59794         2.56556         0.56127
H          7.45725        30.88804        -0.30112
H         11.09631         2.45025         0.25490
H          9.91458        30.87980        -0.20175
H         13.56543         2.43841         0.16975
H         12.37171        30.89566        -0.18094
H         16.04036         2.48086         0.47575
H         14.84413        30.92570         0.05231
H         18.46089         2.56086         0.85574
H         17.27895        30.96739         0.44877
H         20.56176         3.85084         1.05244
H         21.77902         6.02262         0.89985
H         21.80425         8.43381         0.39590
H         21.87324        10.12632        -0.60788
H         21.92684        12.54688        -0.79421
H         21.92319        14.42743        -0.50359
H         21.92517        16.83632        -0.42326
H         21.93929        18.74663        -0.54228
H         21.96563        21.13683        -0.14770
H         21.98493        23.02574         0.19659
H         21.96438        25.44642         0.33637
H         21.98804        27.36008         0.88010
H         21.90068        29.82578         0.82034
H         19.72043        31.02174         0.66598
