         261
 CSIRO Nanostructure Databank - Neutral Graphene Oxide Data Set
C        -11.01037         0.67963         1.10470
C         -9.80250         1.50086         0.69611
C         -8.53089         0.82171         1.17905
C         -7.26449         1.58817         1.07228
C         -6.05954         0.81792         0.59154
C         -4.94500         1.49590        -0.13673
C         -3.65377         0.76712        -0.42975
C         -2.52173         1.48664        -1.12053
C         -1.16631         0.83120        -1.01771
C          0.06906         1.54830        -1.43967
C          1.28692         0.77468        -1.88484
C          2.60687         1.48644        -1.68587
C          3.78061         0.65706        -1.22310
C          5.00441         1.35503        -0.71877
C          6.36747         0.74330        -0.94780
C          7.57319         1.51171        -0.44289
C          8.64958         0.68500         0.22350
C          9.73762         1.35440         1.00107
C         10.34361         0.63172         2.15441
C         -9.86173         2.97151         1.19003
C         -8.59533         3.78501         0.89781
C         -7.28393         3.07074         0.88229
C         -6.11536         3.75595         0.24803
C         -5.02265         2.97693        -0.43685
C         -3.88440         3.69576        -1.10812
C         -2.58400         2.97282        -1.41394
C         -1.30218         3.74656        -1.56717
C          0.01811         3.02721        -1.73222
C          1.31734         3.77266        -1.66764
C          2.61136         2.98152        -1.57108
C          3.72149         3.64770        -0.82398
C          4.90416         2.83971        -0.39503
C          6.13903         3.63262        -0.06330
C          7.46731         2.95947         0.00316
C          8.53370         3.58695         0.83102
C          9.86808         2.88224         0.97672
C         -8.63606         5.12565         0.70795
C         -7.36865         5.97308         0.72990
C         -6.26905         5.21402        -0.06666
C         -5.09325         5.93493        -0.65433
C         -3.91638         5.21774        -1.40152
C         -2.54824         5.94665        -1.33079
C         -1.29953         5.16259        -0.97128
C          0.04592         5.98360        -1.10073
C          1.34797         5.22995        -1.25418
C          2.67939         5.95073        -1.37141
C          3.96349         5.14698        -1.03075
C          4.71727         5.72476         0.19683
C          5.89264         4.84478         0.86122
C          7.16940         5.64708         1.07161
C          8.37879         4.85645         1.29089
C         -7.45303         7.34872         0.09036
C         -6.24092         8.14200         0.11045
C         -4.92164         7.34561        -0.17816
C         -3.67053         8.10413        -0.45579
C         -2.48308         7.40680        -1.02512
C         -1.24450         8.28569        -1.05259
C          0.04635         7.51616        -1.28987
C          1.36087         8.23598        -1.05688
C          2.68307         7.43558        -1.12147
C          3.94043         8.00191        -0.58441
C          4.84755         7.23159         0.24342
C          6.07795         7.94193         0.83400
C          7.18252         6.99146         1.23232
C         -6.14716         9.57630        -0.26611
C         -5.00063        10.23731        -0.56810
C         -3.66067         9.60342        -0.53409
C         -2.32973        10.13763        -1.07943
C         -1.16688         9.57140        -0.27360
C          0.00230        10.21828        -0.09313
C          1.37995         9.65077        -0.38935
C          2.23184         9.71234         0.86634
C          3.57926         9.64126         0.79231
C          4.52705         9.62969         1.90648
C          5.64012         8.86950         1.95544
C        -10.95003        -0.65491         1.31132
C         -9.71329        -1.43146         1.27595
C         -8.45466        -0.68541         0.86188
C         -7.15016        -1.29512         1.43247
C         -5.88016        -0.56234         1.15716
C         -4.56740        -1.27475         0.93379
C         -3.42207        -0.56786         0.25686
C         -2.23746        -1.37193        -0.25971
C         -1.24448        -0.66947        -1.15101
C         -0.07635        -1.44106        -1.67517
C          1.24244        -0.72672        -1.94286
C          2.51666        -1.49925        -1.65320
C          3.84723        -0.76297        -1.73960
C          5.13941        -1.51465        -1.58074
C          6.49802        -0.80837        -1.27665
C          7.38215        -1.51321        -0.22335
C          8.12720        -0.63333         0.74466
C          8.75225        -1.25585         1.94747
C          9.91263        -0.57058         2.56936
C         -9.69493        -2.78422         1.42008
C         -8.42357        -3.54317         1.60303
C         -7.12665        -2.77725         1.65221
C         -5.79704        -3.49536         1.55732
C         -4.64877        -2.78817         0.84585
C         -3.50673        -3.56838         0.24938
C         -2.24333        -2.86790        -0.22013
C         -1.32915        -3.65980        -1.13933
C         -0.08693        -2.96091        -1.69301
C          1.19331        -3.72677        -1.93284
C          2.50386        -2.99753        -1.71192
C          3.80900        -3.74952        -1.79887
C          5.09288        -3.01948        -1.40396
C          6.12022        -3.73559        -0.57303
C          7.21787        -2.96180         0.12338
C          7.81423        -3.49665         1.38623
C          8.57212        -2.70865         2.17922
C         -8.31892        -4.98089         1.27399
C         -7.14563        -5.66837         1.25353
C         -5.83785        -5.00694         1.51930
C         -4.54745        -5.74698         1.20861
C         -3.36441        -5.02495         0.63104
C         -2.18374        -5.81282         0.08917
C         -1.32529        -5.16051        -0.97084
C         -0.10684        -5.93780        -1.40655
C          1.16597        -5.24325        -1.81840
C          2.48234        -6.00781        -1.83361
C          3.77342        -5.23889        -1.65220
C          4.61304        -5.91560        -0.53508
C          5.67563        -5.00265         0.19895
C          6.90198        -5.76222         0.69461
C          7.72106        -4.98106         1.69824
C         -7.16709        -7.08700         0.70116
C         -5.94440        -7.93061         1.01832
C         -4.61200        -7.25225         1.19491
C         -3.34876        -8.01893         0.91350
C         -2.17373        -7.30857         0.28661
C         -1.16285        -8.14545        -0.45671
C         -0.02488        -7.41050        -1.05862
C          1.36495        -7.85791        -0.65713
C          2.53515        -7.48970        -1.50242
C          3.84206        -8.21146        -1.25294
C          5.03224        -7.32508        -0.94643
C          6.25682        -7.93688        -0.34304
C          7.12965        -7.07213         0.48858
C         -5.94338        -9.33072         0.52725
C         -4.82531       -10.06757         0.38292
C         -3.45367        -9.54137         0.58240
C         -2.35630       -10.15903        -0.13975
C         -0.95022        -9.65580         0.04331
C          0.05108       -10.32043        -0.89767
C          1.37079       -10.30430        -0.74809
C          2.65943       -10.52195        -0.53519
C          3.86362        -9.66737        -0.82802
C          5.11928       -10.14472        -0.18655
C          6.21671        -9.38185        -0.02009
O         -3.06023        -9.01525         1.90872
O          4.64532        -1.05910        -2.90160
O          2.42579        -2.27702        -0.42185
O         -2.12102         3.43761        -2.72072
O          4.14048        -4.62883        -2.91557
O         -2.52741         6.89394        -2.40529
O         -1.01270        -8.12029        -1.88963
O         -1.54824        -2.11494         0.80268
O          8.25617        -2.51906        -0.80877
O          4.09680         9.38174        -0.53671
O          0.76508         8.14626        -2.38027
O         -6.16505         3.62395         1.70625
O         -3.33230         8.90793         0.71608
O         -3.50401        -0.63501         1.70377
O         -3.47524        -5.24825         2.05944
O         -6.31581         5.67354        -1.44144
O          4.06851        -9.26121        -2.22446
O         -7.80700        -3.15277         2.88296
O          6.19579        -7.53222        -1.76656
O         -4.66008        -3.23546        -0.56862
O          0.22980        -5.77632        -2.79882
O          1.21911         0.06792        -3.15305
O          3.93564         6.43205         1.13084
O          0.66663         3.49974        -2.94000
O         -4.99925         3.12673        -1.87953
O          4.12288         0.62691         0.19623
O         -2.06318        -4.52237        -2.04637
O          3.82299         3.16332         0.53230
O         -8.38189        -0.75083        -0.53909
O         -6.41824        -0.64392         2.50654
O         -7.88129         1.26466         2.37890
O          5.08272        -4.43824         1.33645
O          0.83493         5.56331         0.07450
O          5.46129         4.41541         2.07598
O          2.41553        -7.03078        -2.86460
O         -5.60862        -4.26528         2.76072
O          7.07028         3.84136        -1.12991
O          9.99828         0.71498        -0.30262
O         -3.44128         0.65820        -1.87133
O          7.26544         1.43356        -1.85769
O          6.23517        -3.73869        -1.99200
O         -1.18451        -1.03153        -2.54905
O          2.87137         6.84078        -2.48579
O          0.35626        -3.31844        -3.03694
O         -0.25607         1.33975        -0.00727
O          2.98667         2.34075        -2.81594
O          1.55021        -8.08156         0.53348
O         -5.33770         7.62914         1.15683
O         -5.36863        -7.75851         2.33636
O          7.47798        -0.47676         2.04347
O         -6.03588         0.82194        -0.86130
O         -1.79293         9.26257        -2.16297
O         -1.42693        -6.40884         1.17844
O          1.94446        10.54697        -1.36426
H          1.50667        10.36339        -2.22357
O         -0.48965        -9.67635         1.36820
H         -1.21128        -9.37654         1.97000
O          3.59511        -6.15770         0.46504
H          3.82301        -5.54325         1.22711
O        -10.06905         2.97775         2.60270
H         -9.30944         2.51015         3.02205
O         -7.03615         6.13240         2.11895
H         -6.76029         5.25089         2.46533
O          9.03478        -5.52884         1.83256
H          9.51717        -5.38405         0.99243
O         -4.23739         5.32519        -2.78920
H         -4.98119         4.70897        -2.97780
O         10.54323         3.35049         2.14344
H          9.94636         3.25268         2.91361
O          6.65996         8.74536        -0.21632
H          6.03069         9.46295        -0.45615
O         -9.70292         1.50784        -0.73703
H         -9.30277         0.61926        -0.99762
O         -1.52161         4.93504         0.44794
H         -0.64336         4.84204         0.89219
O          7.24028        -0.90947        -2.48400
H          6.65663        -0.66777        -3.23467
O          4.86742         5.27192        -2.13542
H          4.47435         5.87807        -2.80656
O         -7.22364        -7.02259        -0.73347
H         -7.99537        -6.48022        -0.99791
H         10.41952        -1.08229         3.40154
H         11.19459         1.11941         2.65307
H         10.50717         3.16198         0.09886
H          9.22778         5.34259         1.79752
H          8.13260         7.48534         1.49196
H          6.27308         8.91769         2.85417
H          4.25365        10.24195         2.77983
H          1.74195         9.89537         1.83235
H         -0.00942        11.30213         0.09985
H         -2.32014        11.21456        -1.35910
H         -5.06365        11.28889        -0.88683
H         -7.10076        10.11783        -0.36100
H         -8.36666         7.70556        -0.40727
H         -9.60819         5.64316         0.72051
H        -10.73912         3.47934         0.71948
H        -11.98242         1.19276         1.15591
H        -11.87418        -1.20239         1.55686
H        -10.63626        -3.33235         1.58792
H         -9.24522        -5.50511         0.98702
H         -8.08871        -7.61252         1.08233
H         -6.91762        -9.77499         0.27505
H         -4.90380       -11.09471        -0.00299
H         -2.60467       -10.70968        -1.06148
H         -0.36982       -10.70663        -1.84451
H          2.90860       -11.47247        -0.02389
H          5.13845       -11.19213         0.15385
H          7.10026        -9.81052         0.47822
H          7.99448        -7.54073         0.98727
H          7.22001        -5.09631         2.69679
H          9.08008        -3.15071         3.05020
