         261
 CSIRO Nanostructure Databank - Neutral Graphene Oxide Data Set
C        -11.31263         0.67820        -0.34119
C        -10.16118         1.58875         0.03380
C         -8.97117         0.75033         0.51635
C         -7.72451         1.47855         0.89359
C         -6.43895         0.71889         1.17139
C         -5.16103         1.52918         1.19651
C         -3.85481         0.78178         1.10687
C         -2.57016         1.44855         1.55198
C         -1.24932         0.71799         1.35835
C          0.02049         1.46076         1.10398
C          1.12913         0.83964         0.28340
C          2.40882         1.60952         0.14952
C          3.62117         0.93138        -0.44573
C          4.87681         1.72422        -0.67004
C          6.18869         0.95911        -0.51609
C          7.52931         1.60909        -0.66946
C          8.77259         0.78451        -0.83414
C         10.08116         1.50662        -0.56524
C         11.24258         0.65086        -0.22881
C         -9.65246         2.60653        -1.02110
C         -8.56104         3.49794        -0.40510
C         -7.68195         2.96787         0.68216
C         -6.47728         3.77109         1.11512
C         -5.21412         3.01950         1.54754
C         -3.88514         3.73509         1.61213
C         -2.56987         2.94746         1.65730
C         -1.28605         3.67563         1.30816
C         -0.01734         2.95767         0.99873
C          1.30908         3.62517         1.28850
C          2.56853         2.88374         0.95824
C          3.97934         3.51071         0.97712
C          4.74107         3.20144        -0.31074
C          5.26607         4.37716        -1.12084
C          7.77245         3.03166        -1.14312
C          8.92283         3.70076        -0.44077
C         10.01754         2.93815        -0.15496
C         -8.33837         4.73222        -0.92888
C         -7.26176         5.62386        -0.52796
C         -6.41396         5.27091         0.69076
C         -5.02036         5.92746         0.73160
C         -3.80145         5.20612         1.23520
C         -2.43487         5.77269         0.91840
C         -1.22718         5.15583         1.58539
C          0.07917         5.89189         1.53130
C          1.34583         5.12705         1.19248
C          2.66999         5.81719         1.00062
C          3.98448         5.05963         1.27227
C          5.34733         5.78925         1.32632
C          6.65665         5.07617         0.98031
C          7.68784         5.81083         0.18295
C          8.80529         5.15474        -0.28676
C         -7.12777         6.86917        -1.11810
C         -6.02880         7.79783        -0.82103
C         -4.87995         7.24603        -0.00865
C         -3.51337         7.67860        -0.46321
C         -2.29836         7.05227         0.16721
C         -1.11432         7.94106         0.43148
C          0.05272         7.37456         1.20059
C          1.36693         8.10470         1.10830
C          2.65158         7.32937         0.99067
C          3.63208         7.97188         0.04903
C          5.51658         7.30976         1.38016
C          6.44948         7.94742         0.39655
C          7.52893         7.23207        -0.05035
C         -5.78853         8.98700        -1.68927
C         -4.58686         9.58903        -1.77477
C         -3.34921         8.88971        -1.32448
C         -1.99974         9.61263        -1.41255
C         -0.91787         9.14329        -0.43501
C          0.23072         9.84933        -0.35488
C          1.28953         9.58888         0.69837
C          2.64670        10.17857         0.35157
C          3.77642         9.44959         0.15482
C          5.09924        10.03194        -0.04171
C          6.27527         9.35000         0.02981
C        -11.26229        -0.66205        -0.38084
C         -9.98110        -1.45467        -0.52610
C         -8.76675        -0.61694        -0.09307
C         -7.47156        -1.35501         0.06289
C         -6.39783        -0.77309         0.96021
C         -5.09953        -1.56032         1.19918
C         -3.84149        -0.72580         0.89144
C         -2.54517        -1.46917         0.86936
C         -1.24236        -0.77081         1.10329
C         -0.01713        -1.43918         0.56857
C          1.08237        -0.64309        -0.12590
C          2.45252        -1.32766         0.01601
C          3.63235        -0.58851        -0.55700
C          4.92604        -1.33264        -0.70470
C          6.18630        -0.58265        -0.39823
C          7.45798        -1.40272        -0.34347
C          8.72339        -0.72359        -0.78956
C         10.02375        -1.48476        -0.68416
C         11.22945        -0.69634        -0.34554
C         -9.93487        -2.82447         0.16540
C         -8.77290        -3.54015         0.22802
C         -7.53400        -2.85897        -0.37634
C         -6.18762        -3.60596        -0.17905
C         -5.02581        -2.91137         0.48587
C         -3.80955        -3.70596         0.88714
C         -2.52158        -2.96670         0.99893
C         -1.28938        -3.67971         0.51573
C         -0.06636        -2.89549         0.19143
C          1.25008        -3.58933         0.40492
C          2.52704        -2.80826         0.23488
C          3.69798        -3.59188        -0.30256
C          4.93088        -2.86558        -0.75197
C          6.25486        -3.62481        -1.02112
C          7.42753        -2.94925        -0.29686
C          8.76423        -3.64538        -0.52708
C          9.95942        -2.93984        -0.44380
C         -8.74522        -4.99916         0.35628
C         -7.59660        -5.72195         0.22006
C         -6.27618        -5.12916        -0.18074
C         -5.05801        -5.83289         0.41544
C         -3.76225        -5.09763         0.34114
C         -2.47336        -5.83601         0.27702
C         -1.23508        -5.17717         0.85663
C         -0.01036        -5.82727         0.21911
C          1.26432        -5.07928         0.42551
C          2.55422        -5.84274         0.40738
C          3.72945        -5.10657        -0.15327
C          5.00888        -5.82907        -0.37528
C          6.28422        -5.00842        -0.30647
C          7.53613        -5.81607        -0.60892
C          8.74651        -5.06294        -0.61450
C         -7.28426        -6.91255        -0.68023
C         -6.37396        -7.99735        -0.00539
C         -5.05982        -7.32137         0.39149
C         -3.77073        -8.06531         0.14942
C         -2.47559        -7.33579         0.11701
C         -1.20246        -8.12621         0.50962
C          0.01698        -7.28834        -0.06559
C          1.37848        -8.04669        -0.27631
C          2.55823        -7.33649         0.44507
C          3.87805        -8.06850         0.29989
C          5.10189        -7.30270        -0.08685
C          6.19517        -7.94907        -0.91338
C          7.50210        -7.19779        -0.72743
C         -6.08144        -9.26150        -0.79551
C         -4.97546       -10.00953        -0.62783
C         -3.79160        -9.58510         0.23298
C         -2.45300       -10.17942        -0.20349
C         -1.22749        -9.54951        -0.04174
C          0.02709       -10.21047        -0.20226
C          1.28723        -9.55317        -0.05441
C          2.49884       -10.22555        -0.07160
C          3.84492        -9.59871         0.26344
C          5.07512       -10.15865        -0.43866
C          6.17347        -9.45596        -0.77313
O          2.01472         2.89229         2.31244
O         -0.84003         3.44955        -0.08163
O          4.00203         1.45791        -1.77275
O         -4.44316         1.41621        -0.08142
O          6.91220         1.51470         0.63535
O         -3.17631        -3.50934         2.17480
O          2.28723         7.97330         2.23602
O         -0.28609        -6.37195        -1.10353
O         -4.55756         6.07132         2.11556
O         -7.62956         3.62661         1.98583
O         -5.15474        -2.96494        -0.95604
O          4.90496        -7.66695         1.29120
O          2.77381        -1.87622         1.32961
O         -7.70743        -2.94777        -1.75838
O         -0.59080         5.59084         2.80041
O         -6.45443        -5.94719        -1.45831
O          5.02770         7.95399         2.29292
O         -3.10537        -7.72126        -1.12015
O         -1.07961        -8.16274         1.86314
O          6.40214        -4.58841         1.10132
O          4.13399         3.94194        -1.46380
O         -7.71500        -0.50429        -1.10323
O         -6.74576        -0.20146         2.26004
O         -0.92736        -3.35294        -0.86774
O         -0.96277         8.15689         1.87783
O         -3.33941         7.55128        -1.92338
O          3.91688        -3.26552        -1.71139
O          2.56148        -6.59745         1.68445
O         -2.56515         2.10858         2.84491
O         -5.20319        -6.59271         1.65879
O          4.16839        -0.90435        -1.86928
O          6.93080         3.96627         1.42539
O          9.57067         1.28959        -1.93109
O          7.13292         3.56243        -2.03212
O          7.11405        -3.28691         1.10963
O          9.33190        -1.25023        -1.99040
O          4.11777        -5.63014        -1.48714
O          1.35597         1.70942        -0.86765
O         -3.01744        -5.18279        -0.90244
O         -3.18952        -1.03487        -0.37110
O          4.63752         5.32509         2.51703
O         -8.71427         1.02770         1.90688
O         -0.26457        -1.38514         1.99736
O         -7.31782         6.03185         1.44148
O          6.82772        -0.91427         0.86668
O         -4.67887         3.46231         2.80666
O          4.15312         7.30884        -0.84103
O          1.71977        -7.95858        -1.60300
O         -2.06432         5.77681        -0.50704
O          1.21496        -4.30687         1.68236
O         -0.28019         1.00059         2.42794
O          1.88749         5.39923        -0.15601
O         -5.76346         8.22158         0.58286
O          4.61049         2.81038         2.04317
H          5.54928         3.11730         2.12662
O         -2.20253        11.01726        -1.23444
H         -2.32743        11.20404        -0.28106
O         -7.06499        -8.41901         1.18725
H         -6.74918        -7.84686         1.92383
O         -5.03840        -1.90095         2.59303
H         -5.56014        -1.23553         3.10251
O         -3.97954       -10.03741         1.58961
H         -3.26168        -9.65712         2.14228
O        -10.73120         3.41397        -1.46976
H        -11.23126         3.68241        -0.66838
O          6.46975        -3.70884        -2.41281
H          5.59837        -3.88050        -2.83837
O          5.81219        -7.68448        -2.29787
H          6.44847        -8.13736        -2.88940
O          0.85143        10.30540         1.87864
H          1.30920         9.90645         2.65104
O         -1.23586        -5.36971         2.26582
H         -0.39001        -5.02464         2.63247
O         -9.92780        -1.69575        -1.94413
H         -9.03160        -2.09896        -2.15587
O          3.98918       -10.06065         1.64443
H          4.46229        -9.34892         2.13722
O          0.73725        -0.70830        -1.51679
H          1.06374         0.11116        -1.95829
O        -10.66177         2.40350         1.11454
H        -10.10586         2.21196         1.91073
H         12.13020        -1.26493        -0.06850
H         12.15847         1.15181         0.11929
H         10.88844         3.37038         0.36142
H          9.61472         5.76533        -0.72421
H          8.27854         7.72670        -0.68862
H          7.19608         9.89110        -0.24279
H          5.13330        11.10607        -0.28208
H          2.70921        11.27814         0.38972
H          0.34828        10.74517        -0.98383
H         -1.61641         9.47782        -2.45782
H         -4.46893        10.53652        -2.31979
H         -6.67463         9.45921        -2.14010
H         -7.78391         7.11945        -1.96675
H         -9.00046         5.08155        -1.73726
H         -9.22255         2.07194        -1.90895
H        -12.29475         1.17405        -0.38470
H        -12.19316        -1.22330        -0.55861
H        -10.88784        -3.30382         0.44270
H         -9.71562        -5.52094         0.37625
H         -8.12047        -7.33965        -1.27945
H         -6.88252        -9.63803        -1.45163
H         -4.88352       -10.95756        -1.18205
H         -2.46526       -11.22898        -0.54743
H          0.02662       -11.28824        -0.44292
H          2.48810       -11.32888        -0.02170
H          5.12926       -11.25884        -0.47363
H          7.05318       -10.00087        -1.15483
H          8.45186        -7.73849        -0.87430
H          9.70275        -5.59234        -0.74749
H         10.90858        -3.49794        -0.40711
