         600
 CSIRO Nanostructure Databank - Neutral Graphene Oxide Data Set
C         22.90711        27.44815        -0.19120
C         22.93670        28.83011        -0.16223
C         23.02513        31.76365         0.14959
C         23.08525        33.04892         0.56988
C         23.32791        35.78279         1.71893
C         23.38434        37.14691         2.00365
C         24.08967        39.65524         3.47026
C         24.33646        40.92726         3.98466
C         24.45927        43.83130         4.66501
C         24.31749        45.20049         4.71574
C         25.32550        24.60579        -0.39802
C         24.13059        25.29953        -0.29996
C         25.26890        27.41148        -1.02070
C         24.07229        26.69843        -0.46102
C         25.36231        28.86188        -0.60037
C         24.17006        29.56266        -0.29286
C         25.47721        31.64686        -0.04851
C         24.22213        30.96612        -0.02721
C         25.55138        33.02402         0.29776
C         24.39379        33.62322         1.05212
C         25.57388        35.87146         0.78571
C         24.41764        35.12989         1.13926
C         25.57943        37.29537         0.94158
C         24.49395        37.92570         1.64166
C         25.31222        40.28485         1.52686
C         24.57436        39.29474         2.19177
C         25.85935        41.41266         2.15310
C         25.24267        41.82525         3.36671
C         26.25740        44.06246         3.04084
C         25.38014        43.22529         3.76176
C         26.12007        45.46961         3.07141
C         25.07623        46.04662         3.85701
C         25.38143        48.14620         2.69516
C         24.76324        47.42145         3.69969
C         27.89542        23.24486        -0.01223
C         27.86004        24.58033        -0.48956
C         26.57594        25.28682        -0.61291
C         27.77823        27.38855        -1.18242
C         26.55368        26.65523        -0.83103
C         27.82323        28.84431        -0.97020
C         26.60992        29.54352        -0.67943
C         27.89018        31.65855        -0.60426
C         26.66417        30.95070        -0.44021
C         27.92000        33.08840        -0.38395
C         26.73936        33.75693         0.09651
C         27.97856        35.87789         0.15362
C         26.76452        35.17381         0.33584
C         27.99400        37.30306         0.26994
C         26.77853        38.00367         0.51899
C         27.99702        40.16824         0.26245
C         26.81537        39.39660         0.32380
C         28.02930        41.58577         0.60876
C         27.10269        42.06809         1.67832
C         28.26482        44.36600         1.48854
C         27.31267        43.48612         2.19451
C         28.13089        45.75164         1.57505
C         26.94491        46.28971         2.22262
C         28.14001        48.77527         0.77855
C         26.44746        47.57901         1.96404
C         28.13516        50.14989         0.36368
C         30.33222        23.24953         0.01417
C         29.09220        22.60179         0.22767
C         30.33191        24.58445        -0.48492
C         29.08330        25.23100        -0.74748
C         30.33557        27.41142        -1.14584
C         29.08676        26.63130        -1.22387
C         30.32153        28.79098        -1.14901
C         29.05697        29.52217        -1.02161
C         30.31314        31.65587        -1.23709
C         29.06797        30.93834        -0.92248
C         30.33032        33.15919        -1.06436
C         29.11817        33.81673        -0.54244
C         30.41036        35.92344        -0.38270
C         29.17403        35.19897        -0.24544
C         30.42404        37.32918        -0.24442
C         29.18887        38.03168         0.00308
C         30.37421        40.18685        -0.39118
C         29.18436        39.44400         0.02075
C         30.32611        41.70595        -0.34179
C         29.17932        42.35186         0.34678
C         30.43536        44.53573         0.32186
C         29.32365        43.73344         0.74600
C         30.49301        45.90649         0.59816
C         29.39842        46.59025         1.42310
C         30.59410        48.82916         1.08939
C         29.28526        48.06013         1.04059
C         30.53363        50.25690         0.59106
C         29.30280        50.87296         0.29348
C         32.84422        20.61650         0.98072
C         31.63280        21.26208         0.77968
C         32.81329        23.23825        -0.02694
C         31.58770        22.57360         0.25772
C         32.79842        24.60558        -0.47881
C         31.58031        25.25573        -0.70837
C         32.84788        27.40749        -1.06085
C         31.59936        26.62107        -1.35582
C         32.82956        28.81306        -1.12026
C         31.58322        29.53250        -1.16016
C         32.82434        31.67035        -1.17472
C         31.59763        30.93133        -1.18463
C         32.83793        33.10592        -1.07051
C         31.63220        33.82994        -0.90341
C         32.87899        35.92688        -0.63830
C         31.63789        35.21844        -0.64380
C         32.86742        37.33246        -0.41937
C         31.66319        38.05120        -0.30093
C         32.83186        40.25412        -0.40600
C         31.67077        39.50063        -0.33673
C         32.80569        41.70716        -0.51191
C         31.61996        42.40869        -0.37389
C         32.84936        44.60364        -0.46090
C         31.51597        43.90343        -0.54469
C         32.84133        45.98012        -0.25791
C         31.67109        46.67796         0.25190
C         32.95168        48.82279         0.23519
C         31.74544        48.07065         0.45085
C         32.98287        50.25121         0.40169
C         31.75405        50.97398         0.53884
C         32.98697        53.08078         0.54378
C         31.79471        52.40073         0.57207
C         35.32872        19.03363         0.89806
C         35.38922        20.54467         0.87513
C         34.05729        21.22426         0.61974
C         35.29810        23.21729        -0.20085
C         34.04847        22.54527         0.12409
C         35.29028        24.61098        -0.51778
C         34.05849        25.30065        -0.65828
C         35.31159        27.41806        -0.95631
C         34.06823        26.70600        -0.90383
C         35.30288        28.83359        -1.10163
C         34.06780        29.54002        -1.13104
C         35.30422        31.67408        -1.28091
C         34.05998        30.96349        -1.18470
C         35.31744        33.10675        -1.23470
C         34.09428        33.81207        -1.05140
C         35.35191        35.94595        -0.90427
C         34.10582        35.22633        -0.85529
C         35.37330        37.35282        -0.71151
C         34.14382        38.04037        -0.30105
C         35.34928        40.26565        -0.70466
C         34.12811        39.56870        -0.27880
C         35.28731        41.71786        -0.78917
C         34.07572        42.41864        -0.65645
C         35.31217        44.53973        -0.71037
C         34.07167        43.86267        -0.66537
C         35.35043        45.99763        -0.82576
C         34.04403        46.76008        -0.57369
C         35.37168        48.85466        -0.26926
C         34.13779        48.16936        -0.17533
C         35.41226        50.26883        -0.05007
C         34.20279        50.97128         0.24765
C         35.47097        53.10432         0.28682
C         34.22790        52.39654         0.37510
C         35.55942        54.51009         0.50356
C         37.73484        18.94864         0.45273
C         36.44691        18.30959         0.70992
C         37.75593        20.30174         0.08908
C         36.43013        20.99285        -0.15645
C         37.72038        23.15612        -0.54162
C         36.50720        22.50246        -0.23293
C         37.76011        24.56334        -0.71661
C         36.53565        25.29663        -0.71453
C         37.78700        27.42056        -1.03160
C         36.54458        26.70949        -0.90576
C         37.78338        28.82316        -1.21851
C         36.54116        29.54468        -1.24638
C         37.75524        31.66856        -1.82654
C         36.51313        30.94895        -1.39099
C         37.78914        33.12911        -1.43970
C         36.57422        33.82009        -1.27230
C         37.79900        35.98091        -1.21320
C         36.57765        35.25186        -1.13103
C         37.77815        37.40725        -1.14849
C         36.55424        38.10098        -0.90149
C         37.71876        40.28154        -1.46142
C         36.51060        39.55264        -0.93163
C         37.75351        41.72728        -1.03837
C         36.53778        42.42466        -0.85277
C         37.79782        44.54374        -0.61863
C         36.54925        43.84203        -0.71921
C         37.79498        45.98157        -0.45307
C         36.61989        46.69816        -0.57899
C         37.81579        48.84966        -0.56533
C         36.60668        48.14509        -0.47858
C         37.83505        50.28493        -0.52917
C         36.63139        50.98418        -0.20165
C         37.90749        53.09924        -0.20329
C         36.67302        52.39888        -0.03039
C         37.95332        54.50807        -0.00188
C         36.75300        55.17934         0.38015
C         40.20369        16.15824         0.95540
C         39.00373        16.83192         0.87042
C         40.19080        18.91872         0.35091
C         38.96221        18.22460         0.56724
C         40.19436        20.28168        -0.06014
C         38.97729        20.95531        -0.20963
C         40.26892        23.10827        -0.80703
C         38.95092        22.35882        -0.70308
C         40.24827        24.57670        -0.76846
C         39.01872        25.27322        -0.83641
C         40.26909        27.40015        -1.00196
C         39.02511        26.69722        -0.95135
C         40.29007        28.81738        -1.20988
C         39.03580        29.54637        -1.33573
C         40.26396        31.67359        -1.73369
C         39.02065        30.92373        -1.50915
C         40.28029        33.13899        -1.54210
C         39.03439        33.82999        -1.42953
C         40.27942        35.94111        -1.42139
C         39.04313        35.25707        -1.34316
C         40.25285        37.40815        -1.52044
C         39.00329        38.15340        -1.25530
C         40.23931        40.29867        -1.21105
C         39.01371        39.54388        -1.22023
C         40.22292        41.68486        -1.17602
C         38.97949        42.41958        -0.99633
C         40.30148        44.49171        -0.49366
C         39.00015        43.81104        -0.70084
C         40.33276        45.97607        -0.22241
C         39.03560        46.74217        -0.00979
C         40.25726        48.80056        -0.82049
C         39.07640        48.14216        -0.57292
C         40.21867        50.23008        -1.30404
C         39.03555        50.98238        -0.75214
C         40.30517        53.10085        -0.87726
C         39.09140        52.39033        -0.60795
C         40.32515        54.51187        -0.71237
C         39.17463        55.21731        -0.24048
C         40.35528        57.33559        -0.48802
C         39.25430        56.63472        -0.07348
C         42.70541        16.15624         0.93226
C         41.43267        16.85382         0.83007
C         42.66947        18.98098         0.56227
C         41.42852        18.23357         0.56124
C         42.71043        20.28399         0.12536
C         41.49896        20.89800        -0.53540
C         42.70214        23.11711        -0.37755
C         41.51373        22.40849        -0.47347
C         42.71701        24.55293        -0.54715
C         41.48951        25.26811        -0.71044
C         42.74529        27.38805        -0.88712
C         41.49943        26.69302        -0.85557
C         42.75996        28.80086        -1.09353
C         41.52826        29.48702        -1.28446
C         42.79886        31.68405        -1.38246
C         41.56758        30.91845        -1.63298
C         42.77771        33.09922        -1.41052
C         41.51411        33.82142        -1.47659
C         42.77776        35.97071        -1.33820
C         41.51875        35.25424        -1.42972
C         42.80292        37.38506        -1.26393
C         41.55099        38.14449        -1.46096
C         42.80848        40.25884        -1.21398
C         41.51980        39.54860        -0.91195
C         42.81281        41.70439        -1.43829
C         41.47543        42.45485        -1.37895
C         42.74230        44.54797        -0.94372
C         41.53107        43.85898        -0.98928
C         42.75594        45.98674        -0.77582
C         41.55557        46.70945        -0.60347
C         42.74369        48.82614        -0.98546
C         41.53073        48.11270        -0.79131
C         42.74295        50.26652        -1.15574
C         41.52755        50.97294        -1.17050
C         42.73380        53.09707        -1.53178
C         41.52856        52.39293        -1.21204
C         42.61177        54.54931        -1.68227
C         41.48729        55.23947        -1.12888
C         42.49347        57.41383        -1.70799
C         41.46340        56.66655        -1.09579
C         43.86188        16.83731         1.04992
C         45.16155        19.01404         0.90810
C         43.85486        18.33796         1.24553
C         45.17194        20.35782         0.45311
C         43.94380        21.04021         0.14984
C         45.19595        23.13179        -0.21217
C         43.95725        22.41415        -0.14818
C         45.20016        24.54195        -0.45051
C         43.95929        25.25127        -0.57598
C         45.22034        27.35751        -0.87532
C         43.97302        26.66623        -0.76153
C         45.22295        28.79050        -1.05713
C         44.01145        29.50771        -1.14950
C         45.22225        31.68500        -1.23272
C         44.00846        30.96366        -1.23722
C         45.23923        33.10110        -1.23140
C         44.00732        33.81697        -1.28885
C         45.24102        35.96717        -1.12505
C         44.01234        35.25650        -1.24977
C         45.24281        37.40200        -1.05320
C         44.00413        38.10391        -1.09241
C         45.25911        40.27710        -1.05054
C         44.00666        39.56078        -1.11729
C         45.25700        41.71002        -0.97499
C         44.04249        42.44218        -1.14463
C         45.22246        44.56400        -0.83416
C         44.00294        43.84328        -1.03716
C         45.22199        45.98676        -0.78741
C         43.98211        46.70214        -0.85423
C         45.21762        48.84218        -0.90810
C         43.97677        48.12246        -0.91763
C         45.21788        50.25782        -1.07282
C         43.98021        50.97899        -1.26248
C         45.28464        52.99607        -1.79529
C         43.97642        52.37266        -1.58076
C         45.47417        54.20579        -2.49543
C         43.50863        55.34802        -2.41909
C         43.47523        56.75153        -2.42826
C         47.58789        19.01315         0.95163
C         46.37005        18.37334         1.18061
C         47.63287        20.33923         0.49673
C         46.41239        21.04313         0.28421
C         47.67444        23.13109        -0.19278
C         46.42755        22.43418        -0.05579
C         47.68681        24.52021        -0.46897
C         46.43977        25.24098        -0.58105
C         47.72464        27.32231        -1.22644
C         46.43786        26.63959        -0.81919
C         47.70764        28.81699        -1.01878
C         46.49047        29.48217        -1.11239
C         47.78440        31.69588        -1.23776
C         46.47578        30.93279        -1.35353
C         47.72603        33.14489        -1.00100
C         46.49201        33.82139        -1.10566
C         47.71833        35.94356        -0.95309
C         46.48358        35.24843        -1.04422
C         47.71964        37.39981        -1.14588
C         46.46190        38.13555        -1.03749
C         47.71976        40.27392        -0.74163
C         46.48213        39.55804        -0.97964
C         47.68854        41.69145        -0.54659
C         46.46109        42.41641        -0.71479
C         47.61700        44.57598        -0.33513
C         46.43925        43.85020        -0.65092
C         47.64425        45.98568        -0.36459
C         46.43733        46.70214        -0.63116
C         47.67203        48.84149        -0.60740
C         46.43926        48.13402        -0.70820
C         47.67739        50.25354        -0.76912
C         46.45747        50.95254        -1.02095
C         47.72678        53.04475        -1.35162
C         46.48196        52.34886        -1.35104
C         47.80751        54.33175        -1.91531
C         46.69825        54.88000        -2.54727
C         50.11049        20.31668         0.37090
C         48.89628        21.01863         0.27181
C         50.16152        23.07687        -0.20418
C         48.91266        22.40608        -0.04715
C         50.17031        24.51207        -0.39935
C         48.94243        25.22398        -0.54068
C         50.17058        27.35475        -0.62429
C         48.97309        26.63676        -0.73362
C         50.18155        28.81919        -0.66250
C         48.95302        29.53289        -0.86525
C         50.16130        31.67048        -0.53719
C         48.98118        30.94583        -0.84988
C         50.15504        33.10879        -0.50882
C         48.93798        33.83478        -0.73424
C         50.17510        35.97781        -0.49233
C         48.94013        35.26400        -0.74321
C         50.20494        37.39441        -0.46416
C         49.03474        38.16091        -0.89663
C         50.12839        40.27130        -0.17264
C         48.94831        39.59348        -0.57672
C         50.09198        41.68971         0.02090
C         48.86913        42.37374        -0.15976
C         50.07095        44.58108         0.37914
C         48.78918        43.81697         0.11983
C         50.08603        46.02849         0.10453
C         48.88346        46.71424        -0.18334
C         50.13638        48.83602        -0.28743
C         48.89961        48.13107        -0.36120
C         50.13928        50.28341        -0.40278
C         48.91809        50.97320        -0.66948
C         50.11570        53.09791        -0.63393
C         48.92631        52.38169        -0.86512
C         51.32338        20.96449         0.18746
C         52.68190        22.99475        -0.28527
C         51.36951        22.33763        -0.08857
C         52.67839        24.52389        -0.41758
C         51.38930        25.23318        -0.39213
C         52.63732        27.35525        -0.24353
C         51.40090        26.64886        -0.41231
C         52.70080        28.83036        -0.53269
C         51.36948        29.53138        -0.44900
C         52.57633        31.67191        -0.01511
C         51.37382        30.95399        -0.33409
C         52.56238        33.08451         0.05529
C         51.35792        33.81322        -0.22391
C         52.58434        35.95041         0.07519
C         51.36323        35.24498        -0.19463
C         52.58492        37.39189         0.13254
C         51.37929        38.10750        -0.08760
C         52.54542        40.25189         0.32936
C         51.35519        39.54662         0.01572
C         52.53868        41.68629         0.41740
C         51.31631        42.40868         0.29547
C         52.54364        44.54557         0.47243
C         51.33490        43.82757         0.35912
C         52.55263        45.98946         0.42626
C         51.32150        46.71698         0.15146
C         52.63833        48.80984        -0.05617
C         51.33975        48.11527        -0.07408
C         52.63442        50.34567        -0.06477
C         51.32883        51.03316        -0.22278
C         51.28762        52.43441        -0.29317
C         55.06599        23.11731         0.32270
C         53.91734        22.39395         0.22584
C         55.09198        24.55155         0.17899
C         53.89542        25.24586        -0.03401
C         55.00113        27.40100         0.48310
C         53.83036        26.67588         0.05075
C         54.92342        28.80065         0.65396
C         53.80431        29.54560         0.20777
C         54.94128        31.67005         0.79413
C         53.77711        30.94362         0.31542
C         54.94101        33.10673         0.77017
C         53.77221        33.80760         0.37283
C         55.09614        35.94747         0.29476
C         53.77289        35.22903         0.31916
C         55.00962        37.41206         0.64131
C         53.79193        38.10969         0.43575
C         54.97611        40.24552         0.80362
C         53.76909        39.53609         0.53434
C         54.97950        41.68040         0.83191
C         53.75690        42.39635         0.63551
C         54.98290        44.53125         0.86028
C         53.76467        43.82334         0.64692
C         54.97659        45.96539         0.90953
C         53.75174        46.68257         0.64350
C         54.93046        48.84907         0.88094
C         53.80523        48.12167         0.52053
C         54.86373        50.27905         0.97519
C         53.75657        50.99083         0.61325
C         57.58311        24.67046         0.38132
C         56.31638        25.29284         0.41626
C         57.42536        27.39775         1.01285
C         56.23811        26.69433         0.67812
C         57.35143        28.77087         1.51168
C         56.00628        29.51676         1.33533
C         57.16588        31.65385         2.03306
C         56.03973        30.97114         1.29672
C         57.25994        33.12848         1.71028
C         56.13462        33.82693         1.18139
C         57.36280        35.94554         1.39086
C         56.19869        35.22416         1.01953
C         57.39810        37.37996         1.29585
C         56.18701        38.10560         0.97697
C         57.40636        40.24436         1.27672
C         56.18495        39.53363         1.03504
C         57.41795        41.67301         1.25524
C         56.19165        42.38556         1.04601
C         57.41733        44.53225         1.23654
C         56.19506        43.81722         1.05795
C         57.39995        45.96075         1.25285
C         56.16788        46.66540         1.14962
C         57.45505        48.81375         1.11986
C         56.14202        48.14590         1.45254
C         58.74896        25.39862         0.57946
C         59.88294        27.54258         1.15426
C         58.68964        26.77022         0.90901
C         59.83246        28.87169         1.46832
C         58.58443        29.57265         1.63608
C         59.67239        31.70182         2.23584
C         58.50452        30.93533         1.90734
C         59.63018        33.05956         2.35935
C         58.45032        33.81426         1.99674
C         59.69294        35.97800         2.14816
C         58.51110        35.23978         1.85427
C         59.73161        37.34367         2.01074
C         58.58183        38.07973         1.59958
C         59.80648        40.25603         1.70654
C         58.61122        39.52812         1.52438
C         59.82225        41.64069         1.65464
C         58.64079        42.38111         1.43802
C         59.84202        44.57895         1.50981
C         58.65223        43.83405         1.39908
C         59.83472        45.97335         1.43977
C         58.63275        46.67992         1.31718
C         58.61337        48.12231         1.14864
O         44.43779        54.74096        -3.27222
O         26.84220        48.27750         0.83052
O         40.52102        45.02301         0.88514
O         52.83317        23.64365        -1.58652
O         25.60648        40.07999         0.17035
O         40.97744        31.22873        -2.95543
O         56.41329        28.93927         2.63669
O         48.57964        37.83862        -2.25416
O         39.58965        22.52778        -2.02065
O         47.24741        31.30790        -2.55268
O         30.08019        40.98874        -1.59873
O         30.16761        32.55221        -2.39912
O         52.97192        49.57168        -1.26474
O         42.11610        42.14501        -2.66706
O         28.34303        26.90805        -2.46863
O         34.55576        46.52587        -1.93436
O         49.19363        44.18298         1.49413
O         40.92914        37.93089        -2.75108
O         34.27996        38.79738         0.96027
O         27.96393        42.35723         2.85987
O         56.00119        48.25715         2.91804
H         56.76246        47.78457         3.31739
O         56.79802        31.56702         3.45796
H         56.64285        30.60662         3.63530
O         35.94811        20.53941        -1.45151
H         36.59116        20.82677        -2.13312
O         38.88381        46.92869         1.43138
H         39.28686        46.13335         1.85282
O         37.69491        31.67051        -3.30997
H         38.60066        31.85625        -3.64233
O         55.50095        35.92135        -1.13568
H         54.79418        36.37328        -1.64487
O         43.66534        18.55013         2.69117
H         42.81216        18.13056         2.93288
O         31.04988        44.09692        -1.92551
H         31.67665        43.63516        -2.52193
O         31.64118        26.34615        -2.80791
H         31.46308        27.18990        -3.27563
O         25.06285        27.43627        -2.49447
H         25.94176        27.57727        -2.91047
O         30.97440        48.98601         2.50551
H         30.78811        48.11915         2.94479
O         35.85957        20.99881         2.17523
H         35.20506        20.71980         2.84854
O         24.54388        33.15810         2.44901
H         24.53255        32.17715         2.42643
O         29.91207        46.56550         2.81952
H         30.09431        45.62922         3.05145
O         53.09133        28.92495        -1.95941
H         52.41028        28.44735        -2.48039
O         47.78820        27.15568        -2.69693
H         47.06693        27.69611        -3.08558
O         39.98784        50.13714        -2.76264
H         39.92855        51.05364        -3.10746
O         37.55404        40.29736        -2.92939
H         38.40075        40.60467        -3.31875
O         41.49812        39.35579         0.55101
H         41.48029        40.23934         0.97618
O         41.58974        20.56963        -1.96509
H         40.88207        21.09833        -2.40924
H         21.97413        26.91841         0.05412
H         22.01150        29.37271         0.07313
H         22.05126        31.32969        -0.11825
H         22.16250        33.63883         0.66752
H         22.44348        35.20820         2.02625
H         22.54528        37.61990         2.53278
H         23.49591        38.93988         4.05652
H         23.87303        41.20424         4.94146
H         23.80738        43.19958         5.28372
H         23.55869        45.65197         5.37106
H         25.31050        23.51664        -0.26435
H         23.21049        24.75510        -0.03851
H         25.06040        49.16935         2.45967
H         23.96065        47.86994         4.30171
H         26.96186        22.70437         0.18902
H         27.16879        50.61006         0.12106
H         29.06462        21.56808         0.59588
H         29.27506        51.92095        -0.03579
H         32.83309        19.60571         1.41075
H         30.70779        20.73392         1.04424
H         32.97174        54.17587         0.62343
H         30.85960        52.96524         0.68991
H         34.38579        18.51693         1.12704
H         34.66426        55.07994         0.78591
H         36.39770        17.21353         0.77441
H         36.76548        56.26181         0.56250
H         40.21734        15.07741         1.15669
H         38.06938        16.27322         1.01252
H         40.38337        58.43109        -0.39901
H         38.40825        57.18388         0.35938
H         42.70046        15.05637         0.89308
H         42.46062        58.51187        -1.67953
H         44.80930        16.28575         1.12899
H         44.22485        57.30332        -3.00981
H         48.51236        18.46229         1.16641
H         46.38132        17.35358         1.58757
H         48.76396        54.86876        -1.94984
H         46.77215        55.82513        -3.09995
H         50.11934        19.23955         0.57859
H         50.13480        54.19170        -0.72677
H         52.25081        20.38019         0.24633
H         52.20578        53.01748        -0.13915
H         55.97872        22.61075         0.66661
H         53.91856        21.34254         0.54510
H         55.69219        50.80649         1.46895
H         53.68126        52.05249         0.88805
H         57.65870        23.59925         0.15006
H         57.47425        49.90302         0.97055
H         59.72726        24.90188         0.51145
H         60.85654        27.04234         1.04964
H         60.77456        29.42190         1.59601
H         60.62407        31.18278         2.41628
H         60.54695        33.58891         2.64837
H         60.59620        35.46114         2.49668
H         60.66266        37.87039         2.25681
H         60.75448        39.73098         1.88128
H         60.78041        42.15780         1.79615
H         60.80734        44.06783         1.62185
H         60.78493        46.52511         1.48093
H         59.57499        48.63669         0.99903
