         349
 CSIRO Nanostructure Databank - Neutral Graphene Oxide Data Set
C          1.11552         3.75574        -1.59953
C         -0.02405         4.43891        -1.27000
C          1.22362         6.24394        -0.18219
C          0.03239         5.69701        -0.58230
C          1.31908         7.51377         0.53288
C          0.21107         7.98412         1.25409
C          1.53441         9.84503         2.01651
C          0.34868         9.11356         2.05738
C          1.53344        12.12089         2.38089
C          0.40181        12.85791         2.71225
C          1.39481        14.83065         1.73001
C          0.29709        14.19660         2.30735
C          1.34751        16.26023         1.37457
C          0.09037        16.98361         1.28368
C          1.20158        19.10425         0.64524
C          0.01422        18.31251         1.00696
C          1.22068        20.59447         0.65140
C          0.00924        21.31616         0.64372
C          1.17434        23.43039         0.23808
C         -0.01908        22.68588         0.44625
C          1.13783        24.80852        -0.09983
C         -0.06275        25.53289        -0.42850
C          1.09770        27.74652        -0.31944
C         -0.08933        26.88060        -0.64825
C          1.18222        29.09590        -1.00026
C          3.57354         3.63628        -1.61783
C          2.41064         4.27978        -1.26759
C          3.68058         6.36934        -0.61805
C          2.50496         5.47058        -0.33646
C          3.71203         7.67104        -0.11438
C          2.54457         8.24435         0.53743
C          3.78242        10.40281         0.97339
C          2.63010         9.52834         1.16642
C          3.76905        11.85120         1.19459
C          2.61872        12.64237         1.62708
C          3.79120        14.76434         1.14542
C          2.59579        14.07143         1.48082
C          3.83619        16.24410         1.48159
C          2.52452        16.94916         1.20569
C          3.73806        19.20277         1.04135
C          2.52689        18.36841         0.79850
C          3.72106        20.63816         0.67147
C          2.45039        21.30913         0.53876
C          3.67233        23.44561         0.27063
C          2.43911        22.73164         0.34517
C          3.68194        24.86923         0.06833
C          2.40952        25.51045        -0.31176
C          3.62112        27.76971        -0.31162
C          2.39152        26.99236        -0.53564
C          3.62147        29.12244        -0.62738
C          2.36937        29.73382        -1.08724
C          6.02356         3.55933        -1.31677
C          4.84860         4.26321        -1.37834
C          6.14486         6.38786        -0.93489
C          4.84063         5.77676        -1.37794
C          6.12932         7.89338        -0.82386
C          4.90871         8.45795        -0.12499
C          6.20945        10.49224         0.30695
C          4.93967         9.78413         0.35815
C          6.21890        11.89243         0.70782
C          4.92950        12.60396         0.85321
C          6.12658        14.75611         0.29556
C          4.94210        14.02969         0.83490
C          6.09386        16.28798         0.28202
C          4.98842        16.98633         0.88464
C          6.23332        19.16034         0.51629
C          5.07357        18.42301         1.04328
C          6.22535        20.63561         0.61764
C          4.92375        21.35158         0.60715
C          6.14242        23.50817         0.29682
C          4.91872        22.76550         0.39163
C          6.11613        24.95132         0.32110
C          4.85047        25.61783         0.20248
C          6.11613        27.91671         0.30132
C          4.81478        27.10542         0.21080
C          6.09549        29.25920        -0.35657
C          4.86089        29.82033        -0.70488
C          8.47863         3.50737        -1.05920
C          7.28923         4.20853        -1.07704
C          8.56348         6.25470        -0.30905
C          7.28595         5.65294        -0.84380
C          8.60528         7.75227        -0.40088
C          7.42822         8.46514        -0.32747
C          8.68846        10.56539        -0.10774
C          7.42482         9.86609        -0.02125
C          8.70693        11.97604        -0.07702
C          7.52924        12.67535         0.43901
C          8.54299        14.77725        -0.33583
C          7.42921        14.10417         0.16502
C          8.56840        16.25727        -0.29299
C          7.38797        17.02746         0.17025
C          8.50292        19.18235        -0.51013
C          7.33795        18.50783         0.05268
C          8.54716        20.71315        -0.67159
C          7.44826        21.36291         0.16250
C          8.61232        23.50308         0.19001
C          7.37852        22.84032         0.10940
C          8.58148        24.90403         0.75401
C          7.31931        25.67690         0.42686
C          8.57409        27.73079         0.77544
C          7.36959        27.10519         0.45353
C          8.55216        29.78647        -0.24791
C          7.27643        29.94773        -0.79678
C         10.97755         3.45430        -1.03156
C          9.75830         4.17155        -0.95929
C         11.03755         6.26893        -0.87843
C          9.81026         5.56831        -0.79194
C         11.05295         7.70404        -0.76992
C          9.87794         8.42601        -0.44961
C         11.11903        10.57126        -0.60430
C          9.88956         9.85112        -0.39625
C         11.08636        12.01274        -0.66587
C          9.86306        12.71214        -0.47598
C         10.98478        14.94671        -0.78549
C          9.79071        14.14357        -0.58636
C         10.97261        16.32822        -0.93519
C          9.58142        16.91909        -1.18608
C         11.34527        19.50524        -1.08020
C          9.42768        18.40907        -1.14166
C         11.17835        20.84828        -0.55744
C          9.88983        21.44308        -0.38557
C         11.08823        23.50112         0.55531
C          9.83764        22.78924         0.04882
C         11.11718        24.97639         0.16023
C          9.84124        25.68119         0.52192
C         11.09827        27.77894         0.70165
C          9.84434        27.03560         0.75777
C         11.03391        29.81325        -0.29265
C          9.77525        30.22030        -0.80898
C         13.47346         3.30910        -0.90930
C         12.19990         4.11590        -0.96614
C         13.55011         6.20700        -0.95559
C         12.25948         5.53486        -0.98317
C         13.62727         7.63450        -1.32096
C         12.26474         8.44272        -1.12836
C         13.54467        10.64664        -1.29889
C         12.30433         9.88096        -0.89653
C         13.53079        12.07760        -0.80280
C         12.30481        12.74430        -0.81162
C         13.57945        14.95804        -0.79468
C         12.26936        14.21148        -0.91451
C         13.51835        16.40534        -0.38061
C         12.15377        17.14980        -0.39969
C         13.59846        19.27808        -0.24160
C         12.35093        18.63642        -0.74334
C         13.62804        20.75216        -0.09750
C         12.36942        21.51693        -0.16705
C         13.63800        23.58863         0.24835
C         12.40275        22.86679         0.18231
C         13.63168        25.00697         0.40630
C         12.33939        25.69266         0.75582
C         13.53444        27.89771         0.15563
C         12.30991        27.17656         0.42201
C         13.49076        29.25980        -0.39288
C         12.29414        29.93214        -0.86440
C         15.62671         3.44377         0.36396
C         14.60947         4.08910        -0.29386
C         16.07992         6.08054        -0.56383
C         14.67741         5.51327        -0.53293
C         16.24105         7.62786        -0.75773
C         14.93081         8.38377        -1.17141
C         15.80388        10.49039         0.00664
C         14.87215         9.88503        -1.04532
C         15.90854        12.01344        -0.02631
C         14.74806        12.79019        -0.54125
C         16.10049        14.88758        -0.42091
C         14.80223        14.17343        -0.51021
C         16.11635        16.37570        -0.48533
C         14.82645        17.13625        -0.36218
C         16.12735        19.32991        -0.20582
C         14.88381        18.61629        -0.69789
C         16.12680        20.70269        -0.06938
C         14.89748        21.48654        -0.44370
C         16.11326        23.57744         0.18551
C         14.90166        22.91625         0.03864
C         16.10191        25.04016         0.42145
C         14.80600        25.77073         0.36151
C         16.07250        27.98344         0.28890
C         14.76572        27.19932         0.23246
C         15.97409        29.32257        -0.40472
C         14.69729        29.88511        -0.69375
C         17.70067         3.50404         1.73677
C         16.76340         4.15913         0.89343
C         18.04898         6.23015         1.07313
C         16.94719         5.51297         0.54833
C         18.18038         7.65264         0.86485
C         17.11288         8.36514         0.24162
C         18.30763        10.45980         0.62563
C         17.12891         9.77654         0.23148
C         18.44500        11.91466         0.36823
C         17.19353        12.71574         0.26506
C         18.44648        14.84645         0.43630
C         17.31935        14.18442         0.06057
C         18.48893        16.34006         0.52344
C         17.28869        17.11502         0.09633
C         18.56279        19.25529         0.37131
C         17.42868        18.56799        -0.34283
C         18.45152        20.60845         0.58558
C         17.33452        21.42864         0.20517
C         18.60310        23.57614        -0.12672
C         17.38780        22.86210         0.10915
C         18.60520        25.00362        -0.19291
C         17.39715        25.78133         0.18887
C         18.41197        27.87684        -0.63250
C         17.31996        27.22470        -0.16661
C         18.46992        29.39868        -0.69283
C         17.10590        29.99998        -0.76403
C         18.80827         4.18025         2.20529
C         20.12483         6.27395         2.39135
C         18.99732         5.55192         1.89423
C         20.28289         7.61056         2.12860
C         19.29945         8.35024         1.39395
C         20.59041        10.50326         1.58082
C         19.41476         9.76335         1.16362
C         20.73613        11.84332         1.41977
C         19.71135        12.64342         0.72795
C         20.89818        14.81808         0.24929
C         19.70848        14.15607         0.93444
C         20.95768        16.14855         0.07811
C         19.84242        17.02518         0.53792
C         21.03846        19.23252        -0.12083
C         19.87354        18.54872         0.47540
C         21.05477        20.56248        -0.51977
C         20.18718        21.54823        -0.00589
C         21.07477        23.70037        -0.77340
C         19.83741        22.84764        -0.68491
C         20.99604        25.05093        -0.77968
C         19.74726        25.72447        -0.55974
C         20.52643        27.76620         0.52465
C         19.78093        27.22226        -0.67965
C         20.16126        28.97912         1.11122
C         19.22932        29.83418         0.53898
O         16.94064        25.49654         1.56182
O         19.44049        12.25459        -0.65816
O         14.19067        16.72482         0.88477
O         11.01484        29.14224         0.94811
O         12.83284         8.01662        -2.44012
O         20.13337        17.79281         1.74128
O          1.64262        10.85912         2.96766
O         13.66788        19.87493         1.09303
O         16.36458        15.65105        -1.70756
O          8.59925        29.10256         0.99248
O          2.45671        26.11856        -1.69751
O          4.44642        18.94263         2.28464
O         17.19005         7.81916        -1.78642
O          7.15190        12.23732         1.79182
O         16.24402        12.45641         1.36090
O          5.76733        15.50644        -0.93571
O         10.34526        19.06772        -1.96742
O         17.52728        16.87099         1.50662
O         19.55467        21.28899         1.19683
O         15.31768         9.28744        -2.26962
O         13.00686        14.70970        -2.10796
O          1.94321        18.58448        -0.52483
O          7.29273        21.02026         1.58018
O          5.26258        27.74701         1.46885
O          8.46904        16.66968         1.11135
O         13.25869         2.06793        -0.23261
H         12.92843         2.26124         0.66846
O         15.02513        10.19665         1.21977
H         15.37477        10.79189         1.92464
O         16.59598         5.46775        -1.78260
H         17.10566         6.21128        -2.22780
O         19.20928        29.85354        -1.87065
H         18.62829        29.73179        -2.65065
O         11.74757        17.27542         0.99639
H         12.56115        17.47375         1.52087
O         19.50358        22.46511        -2.06962
H         19.54244        23.28110        -2.61303
O         11.22416        24.99123        -1.28612
H         11.29475        25.92443        -1.57850
O          2.76921         4.88789         0.99976
H          2.00467         4.31357         1.21873
O          1.03860        28.00093         1.12289
H          0.27844        28.59462         1.29526
O          8.20050        21.00530        -2.04928
H          8.88345        20.57999        -2.61376
O         12.22540        25.63228         2.20381
H         13.00214        26.09098         2.58653
O         14.90199        21.53133        -1.92237
H         15.71923        21.99914        -2.19995
O         14.91956        18.68619        -2.15687
H         14.90553        19.64900        -2.39394
O         16.29820        28.24717         1.70734
H         16.51055        27.37400         2.11737
O         17.75017        18.52674        -1.77497
H         16.91677        18.30203        -2.25570
O          4.03532        16.27827         2.94419
H          4.18412        17.22550         3.18326
O         10.98190        23.42891         2.00964
H         11.06769        22.48849         2.27453
O          9.20549        16.52642        -2.54078
H          9.86248        16.91521        -3.15671
O          4.63691         6.16099        -2.79906
H          5.28087         5.64803        -3.33329
O         13.40417        10.79685        -2.74209
H         13.91061        10.04963        -3.15136
O          6.03917         8.40091        -2.20443
H          5.35212         7.84913        -2.65921
O          8.54975         5.97194         1.14295
H          7.72674         6.35820         1.51201
O         20.49097        27.53763        -1.90023
H         20.41801        28.51737        -2.02421
O          8.54783        24.73014         2.21863
H          9.40286        24.29014         2.46655
O         19.81699        14.37873         2.35740
H         19.73848        15.34180         2.53057
H          1.05785         2.82088        -2.17639
H         -1.00705         4.04432        -1.56217
H         -0.91171         6.23534        -0.41467
H         -0.72664         7.41319         1.26986
H         -0.45511         9.42748         2.73518
H         -0.39321        12.38879         3.30541
H         -0.62115        14.75357         2.53555
H         -0.84114        16.44431         1.50699
H         -0.96282        18.81335         1.06689
H         -0.94281        20.77994         0.75780
H         -0.99037        23.19751         0.41853
H         -0.99797        24.96555        -0.55105
H         -1.03427        27.36491        -0.93990
H          0.25696        29.58484        -1.34322
H          3.54025         2.64148        -2.09038
H          2.42362        30.74459        -1.52022
H          6.00652         2.46165        -1.39941
H          4.85670        30.82589        -1.15258
H          8.46738         2.41839        -1.21694
H          7.15325        30.68668        -1.60399
H         10.96431         2.35558        -1.07932
H          9.74730        30.76247        -1.76465
H         13.77892         3.04615        -1.96169
H         12.42694        30.63848        -1.69854
H         15.55403         2.35805         0.52969
H         14.67527        30.86728        -1.19044
H         17.54540         2.44525         1.98941
H         17.01612        31.00112        -1.21473
H         19.54869         3.66679         2.83546
H         20.87160         5.73875         2.99594
H         21.16611         8.12499         2.53008
H         21.39587         9.95653         2.09023
H         21.60837        12.36177         1.84287
H         21.73492        14.18326        -0.07917
H         21.85318        16.60535        -0.37051
H         21.87821        18.60040        -0.45115
H         21.79331        20.87385        -1.27566
H         22.03267        23.18956        -0.94863
H         21.89411        25.66216        -0.94591
H         21.30236        27.14424         0.99512
H         20.69281        29.30647         2.01844
H         18.98410        30.79463         1.01310
