         320
 CSIRO Nanostructure Databank - Neutral Graphene Oxide Data Set
C         30.67267        31.80733        -0.40905
C         30.52850        32.98603        -0.77263
C         30.49873        36.24117        -1.24455
C         30.56086        37.48055        -1.19010
C         30.62726        40.60539        -0.29060
C         30.46153        41.87502        -0.25726
C         32.88730        28.89681        -0.96140
C         31.88770        29.50450        -0.56642
C         32.97503        31.62952        -1.34029
C         31.69710        30.85721        -0.04572
C         32.96252        33.10898        -1.15046
C         31.63115        33.82416        -1.30045
C         32.95437        36.10813        -1.46598
C         31.60413        35.30262        -1.47665
C         32.90448        37.55091        -0.89189
C         31.65879        38.33348        -0.83399
C         32.81582        40.05661         0.61365
C         31.60859        39.62468        -0.29967
C         32.94654        41.51485         1.03142
C         31.10970        42.77051         0.58693
C         32.69720        44.74822         0.56435
C         31.69885        44.04949         0.38583
C         35.40210        27.43324         0.01708
C         35.14824        28.89479         0.04182
C         34.29910        29.38024        -1.13180
C         35.40040        31.60209        -0.75366
C         34.24217        30.92767        -1.04585
C         35.46489        33.08789        -1.08967
C         34.11161        33.79669        -0.95286
C         35.41026        35.97930        -0.87209
C         34.04217        35.29192        -0.66451
C         35.30410        37.37051        -0.27990
C         34.07320        38.16344        -0.50336
C         35.33048        40.18787         0.54580
C         34.06199        39.65845        -0.18594
C         35.36212        41.70478         0.47839
C         34.10327        42.24793         0.99139
C         35.11337        44.57492        -0.24426
C         34.15548        44.67636         0.96210
C         35.49485        45.95764        -0.67400
C         37.83277        27.19323         0.22168
C         36.44314        26.81307        -0.18846
C         37.79107        28.77778         0.20330
C         36.56428        29.54394        -0.00902
C         37.97710        31.54535        -0.45464
C         36.61332        30.89298        -0.31364
C         38.01352        33.10772        -0.39206
C         36.60393        33.74804        -0.32549
C         37.92844        35.94556        -0.29575
C         36.57611        35.22901        -0.23494
C         37.85383        37.39293         0.08394
C         36.57675        38.06085         0.12938
C         37.79098        40.27627         0.44253
C         36.57257        39.55295        -0.09324
C         37.84987        41.73133        -0.01009
C         36.49775        42.43117         0.20060
C         37.66216        44.62120         0.28913
C         36.50389        43.90211         0.13551
C         37.67533        46.16097         0.48943
C         36.48056        46.59440        -0.30815
C         40.32241        24.66632        -0.89665
C         39.24605        25.27764        -0.80964
C         40.32048        27.36234        -0.29296
C         38.93921        26.75059        -0.73938
C         40.23924        28.59785         0.62040
C         39.00574        29.42633         0.31249
C         40.21340        31.54476         0.78428
C         39.09330        30.88589         0.33167
C         40.17072        32.99465         1.24137
C         38.95652        33.74539         0.65845
C         40.40740        35.82037         0.25884
C         39.02642        35.22673         0.49540
C         40.34299        37.40811         0.25588
C         39.02158        37.98667         0.82908
C         40.31468        40.34753         1.11900
C         39.01355        39.54099         0.88676
C         40.30613        41.80153         0.63775
C         38.97592        42.53124         0.71323
C         40.23502        44.72664         0.66443
C         39.03227        43.95752         0.14680
C         40.25275        46.07794         0.60678
C         38.99076        46.80248         0.07585
C         40.19217        48.89965         0.67337
C         39.17790        48.22503         0.48513
C         42.91880        24.59815        -0.52670
C         41.64868        25.09789        -0.59169
C         42.79498        27.20263         0.47081
C         41.61178        26.60142        -0.27093
C         42.75438        28.62489         0.94629
C         41.53182        29.45287         0.51178
C         42.73946        31.52820         1.40298
C         41.38813        30.73816         1.33158
C         42.74933        33.03026         1.53564
C         41.50143        33.77722         1.19723
C         42.84411        35.86171         0.96639
C         41.55953        35.13292         0.96692
C         42.81261        37.36245         1.07125
C         41.48619        38.10605         1.05961
C         42.81859        40.39302         0.89090
C         41.56166        39.60142         0.59962
C         42.78590        41.75137         0.65743
C         41.49487        42.47517         0.62502
C         42.63706        44.71551         0.03720
C         41.55774        43.97426         0.88017
C         42.80495        46.10470         0.60437
C         41.52528        46.85407         0.98091
C         42.84978        48.91446         0.85325
C         41.54585        48.33843         0.36051
C         43.96045        25.27662        -0.16246
C         45.30771        27.27599         0.70838
C         44.14113        26.54100         0.32093
C         45.30297        28.59423         1.14194
C         44.01887        29.36258         1.45459
C         45.31744        31.61990         1.23112
C         44.03595        30.82485         0.93519
C         45.33414        32.98226         1.25091
C         44.08910        33.79545         1.61832
C         45.35855        35.96635         1.18863
C         44.04254        35.21060         1.08433
C         45.26491        37.36461         0.63224
C         44.09949        38.15211         1.02934
C         45.15745        40.24595         0.03204
C         44.15616        39.69306         1.04961
C         45.18337        41.77335         0.05506
C         44.01643        42.45985         0.26665
C         45.28733        44.56537         0.35436
C         43.98291        43.92117        -0.20548
C         45.24714        46.10367         0.27926
C         44.04180        46.76583         0.59651
C         43.85619        48.19316         0.74403
C         47.70994        27.20413         1.08506
C         46.65442        26.74698         0.64700
C         47.99871        28.61948         1.47334
C         46.56340        29.31715         1.50998
C         47.95076        31.50788         1.22269
C         46.58178        30.82623         1.43149
C         47.76699        32.91548         0.65586
C         46.67272        33.74846         1.32193
C         47.69487        35.80697         0.28694
C         46.58798        35.17032         0.75200
C         47.56872        37.20832        -0.31911
C         46.52554        38.06382         0.36644
C         47.74173        40.29337        -0.24586
C         46.50696        39.55103         0.19669
C         47.71913        41.77689        -0.42141
C         46.35820        42.43678        -0.66178
C         47.57112        44.61770        -0.85507
C         46.46002        43.93077        -0.40160
C         47.56527        46.02832        -0.52423
C         46.49217        46.56919        -0.12043
C         50.10369        28.63946        -0.00245
C         48.92686        29.30582         0.50551
C         50.06223        31.36692        -0.31696
C         48.92504        30.67125         0.37839
C         50.28124        32.83081         0.09406
C         48.94959        33.59504         0.05736
C         50.03406        35.80401        -0.71920
C         49.04854        35.10264         0.28236
C         50.22692        37.30474        -0.30107
C         48.88704        37.99134        -0.59679
C         50.17520        40.25692        -1.09646
C         48.91192        39.49118        -0.71675
C         50.07755        41.69199        -1.49666
C         48.98050        42.56454        -0.85399
C         50.05159        44.52256        -1.69596
C         48.66905        43.89325        -1.60618
C         51.17975        29.15552        -0.39642
C         52.54676        31.39061        -0.59282
C         51.71856        30.42640         0.11848
C         52.57481        32.62666        -0.71775
C         51.37704        33.49975        -0.76707
C         52.48186        35.84130        -1.30948
C         51.32525        34.96867        -1.04340
C         52.34660        37.10401        -1.27719
C         51.41514        38.07669        -0.99666
C         52.56912        40.41550        -1.36270
C         51.50627        39.56011        -0.72037
C         52.52638        41.65204        -1.49664
C         51.52863        42.56845        -2.09978
C         51.13681        43.93134        -1.71461
O         48.00063        41.21754         0.88338
O         31.49069        34.41928        -2.62685
O         42.75132        32.14299         2.71878
O         48.69539        38.62108        -1.88057
O         50.99775        33.96644        -2.06374
O         40.70056        35.35832        -1.06264
O         36.22063        34.40510         0.91784
O         37.99836        40.00801         1.85317
O         38.45110        31.11503        -1.84887
O         43.52355        37.70421         2.34714
O         34.19002        43.44661         1.73532
O         46.84612        38.94669         1.49461
O         49.90492        40.68665        -2.49423
O         31.79382        42.10618         1.66339
O         42.47495        27.51894         1.86344
O         47.89467        33.06592        -0.78704
O         38.49421        34.66557         1.71830
O         46.48580        30.12344         2.72025
O         41.22056        27.42223        -1.44695
O         35.66395        37.43031         1.15269
O         46.93152        36.97218        -1.59940
H         47.61777        36.59501        -2.20062
O         48.24956        43.60800        -2.92877
H         48.11038        44.44931        -3.40893
O         41.68230        29.91084        -0.83669
H         41.69781        29.13013        -1.44264
O         38.74050        37.48370         2.15319
H         38.05688        38.07454         2.54587
O         38.63279        27.26446        -2.01485
H         39.41686        27.13585        -2.59245
O         50.78595        32.86198         1.44033
H         50.10648        32.45692         2.04404
O         32.14658        30.98934         1.23841
H         32.84998        30.31726         1.41114
O         41.06047        30.37492         2.68472
H         40.93122        31.22357         3.17676
O         33.65996        35.42445         0.71584
H         34.41007        35.09448         1.26693
O         38.58350        33.50571        -1.65753
H         39.35329        34.13830        -1.53899
O         41.52536        47.01473         2.40696
H         41.66869        46.12227         2.79891
O         45.36399        44.21121         1.74527
H         46.23525        44.49166         2.09549
O         50.52008        37.48146         1.08302
H         50.22774        36.70133         1.61892
O         40.43316        40.53744         2.55217
H         40.41644        39.63229         2.95588
O         39.26740        43.94062        -1.29838
H         39.27097        44.88947        -1.59538
O         48.58324        31.66077         2.51326
H         48.45251        30.80750         2.99910
O         33.31453        36.26178        -2.83524
H         32.90832        35.52501        -3.34699
O         42.00540        44.92132        -1.26917
H         42.22472        45.82752        -1.57802
O         38.30517        36.01476        -1.69820
H         37.51352        36.32049        -2.21012
O         32.71171        39.27411         1.80442
H         32.19917        39.78020         2.46919
O         33.94091        40.35808        -1.44021
H         34.75359        40.14352        -1.96322
O         49.98544        31.27704        -1.70162
H         49.72287        30.36927        -1.95967
O         38.15608        41.64233        -1.42226
H         38.43063        42.53774        -1.75194
O         49.33491        35.86487        -1.97707
H         49.53677        35.03658        -2.47559
O         51.99025        30.35755         1.45430
H         52.47348        31.15928         1.74128
O         45.64727        36.16990         2.62124
H         44.85265        36.62105         3.00106
O         32.42721        31.23915        -2.56382
H         31.66121        31.81418        -2.77536
O         44.03818        30.71635        -0.50479
H         43.81618        31.58216        -0.90638
O         48.58700        28.74342         2.75605
H         48.00002        28.31573         3.41417
O         51.52075        42.44993        -3.47682
H         51.26359        41.52744        -3.70628
O         34.57304        45.69220         1.82957
H         34.02620        45.65900         2.64140
O         39.08839        46.73686        -1.35895
H         39.87124        47.28056        -1.61824
O         34.47940        43.79901        -1.23397
H         35.01196        43.81702        -2.05466
O         38.62531        42.68272         2.09788
H         38.67614        41.78717         2.51516
O         40.07904        28.08232         1.94856
H         40.33911        28.79560         2.58403
O         40.30875        37.76904        -1.11288
H         40.50114        36.92107        -1.61712
O         51.60457        39.74315         0.69479
H         52.25278        39.10677         1.06170
O         44.64680        40.08102         2.34847
H         44.28194        39.45526         3.01071
O         37.45072        46.42613         1.85685
H         36.53242        46.14377         2.08006
O         38.10317        26.66269         1.49410
H         37.39750        26.92008         2.11930
O         49.58792        43.02658         0.37084
H         49.48007        42.32055         1.05102
O         35.27191        39.89177         1.94333
H         35.18231        38.91303         2.05219
O         47.09314        33.90502         2.69701
H         46.38814        34.44904         3.13678
O         44.68940        39.89812        -1.29211
H         45.20121        40.44123        -1.94104
O         39.90887        32.83625         2.67646
H         39.42308        33.65328         2.95271
O         44.31214        34.03211         3.04938
H         44.01923        33.20651         3.50800
O         41.60250        39.64605        -0.84040
H         41.56389        40.58286        -1.12426
O         36.48526        39.66422        -1.53641
H         37.13543        40.34472        -1.85221
O         34.48828        29.31395         1.24325
H         34.93655        28.90257         2.01079
O         41.61531        48.20827        -1.05618
H         41.73896        49.10037        -1.44477
O         34.91527        29.02564        -2.35305
H         34.30480        29.25793        -3.08374
O         49.53373        35.17732         1.65400
H         48.81705        34.82116         2.24239
O         41.95057        44.11613         2.26415
H         41.42809        43.47916         2.79766
O         41.06352        38.06709         2.44486
H         41.87595        38.00069         2.99993
O         46.12708        42.18311        -2.08012
H         45.38530        42.78426        -2.34668
O         35.72146        36.08803        -2.27472
H         35.70264        35.17197        -2.65711
O         44.17248        43.89961        -1.64223
H         43.27406        43.98147        -2.05065
O         35.78027        33.25083        -2.50307
H         36.55494        32.66018        -2.71479
O         37.33995        31.06129        -2.76537
H         36.98016        30.14217        -2.66370
O         43.90258        29.44234         2.87977
H         43.53341        28.58755         3.19591
