         621
 CSIRO Nanostructure Databank - Neutral Graphene Oxide Data Set
C          5.78347        31.90146         0.81780
C          5.76334        33.25875         0.99500
C          8.28773        27.64851         0.13522
C          8.26176        29.00971         0.40222
C          7.05336        29.77329         0.52858
C          8.22757        31.95283         0.63749
C          7.01840        31.16778         0.66822
C          8.20776        33.33163         0.77218
C          6.97622        34.04376         1.02109
C          8.21784        36.16779         1.45113
C          6.99277        35.41223         1.29718
C          8.20745        37.58472         1.64441
C         10.78223        23.28498        -0.54970
C         10.68001        24.74752        -0.63968
C          9.48060        25.52663        -0.29179
C         10.78913        27.61119        -0.01105
C          9.51040        26.89593        -0.06609
C         10.82116        29.03367         0.27561
C          9.54579        29.72558         0.58589
C         10.76709        31.96443         0.28385
C          9.51734        31.22509         0.63771
C         10.78839        33.44704         0.49024
C          9.44838        34.13784         0.70485
C         10.71964        36.12428         1.56089
C          9.43876        35.47668         1.28083
C         10.67246        37.61907         1.77389
C          9.39242        38.35948         1.67836
C         10.68122        40.51821         1.68709
C          9.44566        39.76732         1.65037
C         10.71607        41.95453         1.64131
C         13.34253        19.08822        -1.19052
C         13.29852        20.49673        -1.01110
C         12.06642        21.17850        -0.85718
C         13.26957        23.28803        -0.62004
C         12.00867        22.58985        -0.71241
C         13.21529        24.71702        -0.27014
C         12.00284        25.52084        -0.60503
C         13.26718        27.66877        -0.18754
C         11.98029        26.93965        -0.20157
C         13.29557        29.08956         0.21957
C         12.01607        29.73171         0.36906
C         13.29149        31.92205         0.68789
C         12.04662        31.21106         0.33499
C         13.27325        33.32562         0.92993
C         12.04229        34.07210         0.91417
C         13.21457        36.14272         1.45062
C         12.02353        35.45544         1.25736
C         13.22413        37.61544         1.45475
C         11.92266        38.37553         1.50524
C         13.21064        40.49119         1.60722
C         11.90304        39.81996         1.71230
C         13.21664        41.98216         1.53699
C         11.91692        42.69706         1.58335
C         13.20662        44.83094         1.48682
C         11.96447        44.09924         1.52890
C         13.21198        46.17790         1.16313
C         15.80199        14.87293        -1.63277
C         15.79701        16.29929        -1.73914
C         14.60732        17.00088        -1.57236
C         15.77149        19.17963        -1.52166
C         14.55474        18.43099        -1.44258
C         15.77877        20.55083        -1.23264
C         14.54039        21.21969        -0.97091
C         15.76967        23.32844        -0.49307
C         14.50515        22.62512        -0.70149
C         15.75648        24.67507        -0.18395
C         14.50477        25.42396        -0.02076
C         15.80240        27.60620         0.19482
C         14.55243        26.90888        -0.17520
C         15.81015        29.12564         0.06436
C         14.48459        29.77826         0.39636
C         15.71823        31.87709         1.03642
C         14.49827        31.19885         0.72520
C         15.71267        33.27796         1.29674
C         14.50460        33.99346         1.19422
C         15.71624        36.14539         1.75789
C         14.52932        35.49561         1.08710
C         15.63056        37.59296         1.98307
C         14.47551        38.30615         1.83247
C         15.68759        40.52939         2.21080
C         14.37879        39.76389         2.25477
C         15.68030        41.97472         2.10539
C         14.46188        42.71995         1.85105
C         15.72095        44.83213         1.80203
C         14.44903        44.10221         1.76348
C         15.74310        46.32088         1.28429
C         14.40946        47.11604         1.13998
C         14.70581        49.35730        -0.04585
C         14.29438        48.10089        -0.03127
C         15.03955        50.64544        -0.17882
C         18.16197        10.58310        -1.44609
C         18.17958        11.98604        -1.64794
C         16.98598        12.73116        -1.59748
C         18.19826        14.81848        -2.32587
C         16.96345        14.12980        -1.79570
C         18.24346        16.31182        -2.03058
C         17.06251        17.01025        -1.90479
C         18.27332        19.26177        -2.05201
C         16.94985        18.50507        -2.18534
C         18.27247        20.65854        -1.51145
C         17.04475        21.28510        -1.16721
C         18.27520        23.29339        -0.48619
C         17.03781        22.62436        -0.68934
C         18.26900        24.64257         0.14534
C         16.97091        25.39462         0.22917
C         18.22889        27.61718         0.38933
C         16.94511        26.88234         0.30526
C         18.17310        28.96612         1.02276
C         16.97005        29.79018         0.77536
C         18.26731        31.86900         1.24874
C         16.95256        31.12102         1.10182
C         18.14431        33.28986         1.76530
C         16.95010        33.98248         1.68207
C         18.07420        36.08891         2.63351
C         16.85529        35.42014         2.00256
C         18.14646        37.59109         2.35689
C         16.89382        38.35313         2.12999
C         18.14115        40.48873         2.64918
C         16.86496        39.81661         2.35650
C         18.16309        41.99220         2.41899
C         16.90588        42.66659         2.06777
C         18.20264        44.70208         1.56614
C         16.96542        44.05414         1.77319
C         18.17936        45.97757         0.90888
C         16.99493        46.64775         0.60587
C         18.24053        48.46621        -0.54206
C         17.05657        47.56201        -0.57541
C         18.16359        49.79209        -0.89606
C         16.28765        51.14072        -0.77421
C         18.06717        52.90432        -1.22027
C         16.77431        52.40900        -0.70157
C         18.09052        54.21075        -1.65127
C         20.49855         6.30304        -0.61148
C         20.51876         7.68271        -0.86933
C         19.31581         8.41639        -1.08085
C         20.63734        10.44096        -1.58285
C         19.32494         9.79052        -1.35978
C         20.69181        11.90908        -1.84443
C         19.44019        12.70972        -1.83032
C         20.75175        14.79146        -2.31868
C         19.47098        14.06617        -2.01082
C         20.72579        16.28174        -2.03825
C         19.54324        16.97902        -2.05061
C         20.82289        19.16201        -1.67669
C         19.55949        18.47576        -2.04983
C         20.82451        20.69528        -1.81132
C         19.49747        21.35226        -1.38210
C         20.76640        23.44748        -0.78483
C         19.48986        22.66777        -0.85226
C         20.82115        24.75343        -0.07276
C         19.55121        25.40573         0.31452
C         20.75211        27.58303         0.88492
C         19.52431        26.90108         0.38748
C         20.73720        28.85606         1.36899
C         19.43316        29.57041         1.54998
C         20.72194        31.75302         2.06506
C         19.42348        31.05196         1.84303
C         20.75412        33.26655         2.09362
C         19.42719        34.01027         2.03486
C         20.38185        36.31303         1.85968
C         19.31492        35.49312         2.02524
C         20.57593        37.59470         2.49490
C         19.41041        38.31763         2.69920
C         20.64863        40.40897         2.50646
C         19.43854        39.75098         2.66573
C         20.66431        41.80012         1.99377
C         19.44037        42.64161         2.07493
C         20.76171        44.72861         1.62962
C         19.45275        43.96139         1.70175
C         20.72846        45.80816         0.58253
C         19.43017        46.45514         0.26179
C         20.67815        48.52803        -0.35054
C         19.48365        47.86029        -0.17465
C         20.65930        49.98934        -0.51874
C         19.28776        50.71900        -0.69087
C         20.54833        52.70421        -1.44214
C         19.30972        52.12357        -1.17387
C         20.62172        54.14083        -1.77678
C         19.33969        54.93747        -1.89065
C         20.49098        56.72626        -3.19808
C         19.34596        56.20695        -2.65676
C         20.51488        58.01165        -3.85150
C         22.99551         3.46687        -0.40449
C         21.80164         4.20107        -0.23489
C         22.83950         6.42110         0.03740
C         21.68707         5.61466        -0.23651
C         23.00519         7.72376        -0.41202
C         21.79201         8.40726        -0.83362
C         23.06027        10.52304        -0.64576
C         21.84409         9.75115        -1.09222
C         23.08375        11.94383        -1.15906
C         21.97586        12.60426        -1.60161
C         23.13058        14.76942        -1.29147
C         22.06388        14.03605        -2.05924
C         23.13572        16.25124        -1.26612
C         22.07171        17.00686        -2.07232
C         23.30546        19.21664        -1.66526
C         21.98682        18.46552        -1.65664
C         23.24259        20.50905        -0.87029
C         21.99431        21.28058        -0.99971
C         23.36019        23.43258        -0.50185
C         22.08731        22.76368        -0.92379
C         23.35753        24.76995        -0.18447
C         22.08811        25.55740        -0.14090
C         23.26731        27.53793         1.02981
C         22.02502        26.90772         0.51978
C         23.27594        28.97091         1.32092
C         21.99470        29.55276         1.88895
C         23.30045        31.69377         2.08240
C         21.99644        31.05909         1.60951
C         23.30825        33.13089         2.27499
C         22.13129        33.85813         1.98172
C         23.37206        35.95798         2.35647
C         22.31525        35.23840         1.81450
C         23.27512        37.37380         2.90334
C         21.90925        38.15175         2.81122
C         23.26178        40.34936         2.47212
C         21.92463        39.69370         2.73451
C         23.26536        41.77665         2.01723
C         21.97056        42.45180         1.69015
C         23.19235        44.47733         0.99182
C         22.01698        43.90790         1.45511
C         23.20255        45.87943         0.53909
C         21.98134        46.55721         0.36624
C         23.15198        48.51958        -0.52402
C         21.95316        47.86040        -0.17547
C         23.06051        49.77727        -1.34808
C         21.86113        50.64646        -1.02961
C         23.05121        52.60798        -1.87813
C         21.81508        51.96890        -1.44815
C         23.02473        53.95036        -2.39096
C         21.82334        54.64827        -2.45904
C         23.01645        56.68534        -3.22470
C         21.74192        55.88082        -3.32160
C         22.99840        58.07576        -3.78492
C         21.69892        58.63770        -4.23057
C         22.95406        60.43201        -5.33477
C         21.73807        59.85170        -4.96598
C         24.29463         3.95337        -0.57857
C         25.60923         6.14298        -0.75825
C         24.65499         5.28679        -0.23227
C         25.54054         7.58304        -0.62917
C         24.30864         8.34419        -0.54875
C         25.59033        10.42109        -0.99395
C         24.36392         9.74108        -0.80681
C         25.57082        11.86976        -1.06314
C         24.35242        12.64698        -0.99550
C         25.62902        14.74722        -0.72827
C         24.38435        14.02814        -1.02209
C         25.73939        16.19030        -0.96086
C         24.44630        16.94426        -0.97963
C         25.82110        19.08214        -1.22485
C         24.48465        18.41398        -1.14664
C         25.83082        20.45681        -0.62886
C         24.53672        21.21025        -0.54247
C         25.84911        23.32061        -0.64521
C         24.61094        22.68965        -0.57084
C         25.92357        24.77181        -0.32932
C         24.63598        25.45809         0.09979
C         25.52573        27.90690         0.16590
C         24.55164        26.90498         0.53368
C         25.67463        29.12126         0.78381
C         24.48518        29.65223         1.42313
C         25.78187        31.76484         1.91946
C         24.48673        31.02829         1.88793
C         25.78281        33.05897         2.68273
C         24.52704        33.82505         2.51472
C         25.80114        35.97152         2.69539
C         24.55163        35.22877         2.64373
C         25.72521        37.39523         2.37744
C         24.50240        38.14358         2.43324
C         25.64913        40.17989         1.67102
C         24.47973        39.52475         2.19207
C         25.64440        41.57372         1.27459
C         24.46468        42.35758         1.36957
C         25.60315        44.28515         0.32145
C         24.39739        43.68160         0.90643
C         25.60664        45.73825        -0.02356
C         24.38432        46.53627         0.15034
C         25.64186        48.50863        -0.74840
C         24.38846        47.86387        -0.35332
C         25.58273        49.88717        -1.22153
C         24.35211        50.54513        -1.40488
C         25.52946        52.57112        -2.14648
C         24.29658        51.91008        -1.80722
C         25.51214        53.89634        -2.65301
C         24.27382        54.58867        -2.81081
C         25.49814        56.60323        -3.56512
C         24.28178        55.92794        -3.22076
C         25.45566        57.92822        -4.11235
C         24.26396        58.62529        -4.31757
C         24.18947        59.84032        -5.04212
C         26.75293         8.29434        -0.72921
C         28.14749        10.29140        -0.61966
C         26.84116         9.69592        -0.84121
C         28.54294        11.54756        -1.08344
C         26.72661        12.59343        -1.33706
C         28.25187        14.62959        -1.02649
C         26.94857        13.94106        -0.86739
C         28.23388        16.01764        -1.05047
C         26.98399        16.77913        -1.09424
C         28.29748        18.93567        -0.67211
C         27.06805        18.27042        -1.22801
C         28.32123        20.40093        -0.36022
C         27.10405        21.20238        -0.62418
C         28.41654        23.26953        -0.72780
C         27.10327        22.57007        -0.63906
C         28.44984        24.76293        -0.69561
C         27.19728        25.50940        -0.52566
C         28.45027        27.57083         0.08842
C         27.34074        26.87531        -0.52349
C         28.32128        28.99890         0.55810
C         27.01720        29.78574         0.74072
C         28.35727        31.67661         1.89074
C         27.05254        31.14377         1.40781
C         28.34498        33.00959         2.52214
C         27.08751        33.79348         2.85941
C         28.22583        36.07559         2.53452
C         27.02999        35.30005         2.78411
C         28.15408        37.35461         1.92336
C         26.89062        38.05354         1.89979
C         27.98973        39.99162         0.80714
C         26.81972        39.40275         1.47765
C         28.03583        41.43859         0.60939
C         26.85338        42.19471         0.77484
C         28.07611        44.19213        -0.00331
C         26.88602        43.57218         0.44452
C         28.15230        45.67492        -0.14695
C         26.89506        46.47699        -0.09306
C         28.13639        48.45818        -0.96459
C         26.86812        47.84865        -0.64278
C         28.11615        49.97161        -1.00724
C         26.80427        50.57927        -1.46244
C         28.01825        52.56881        -2.31009
C         26.77733        51.89117        -1.96004
C         27.97218        53.87766        -2.81039
C         26.74457        54.56783        -2.97813
C         26.71190        55.89941        -3.44902
C         29.55538        12.45440        -0.67263
C         30.70853        14.60032        -0.71745
C         29.50507        13.87084        -0.87661
C         30.78709        16.01027        -0.83188
C         29.53494        16.74342        -1.12544
C         30.85051        18.91980        -0.57869
C         29.58756        18.24294        -0.94080
C         30.88237        20.31538        -0.38813
C         29.63766        21.10902        -0.03969
C         30.87829        23.22391        -0.42781
C         29.69204        22.55622        -0.48280
C         30.97590        24.71007        -0.35807
C         29.71588        25.51910        -0.42885
C         30.83379        27.44624         0.75239
C         29.62851        26.85569         0.22140
C         30.80006        28.76389         1.22583
C         29.45001        29.42115         1.51735
C         30.79089        31.35016         2.52430
C         29.50268        30.91883         1.82311
C         30.85045        32.83979         2.81429
C         29.52776        33.43431         3.04169
C         30.69438        35.97771         2.17516
C         29.51423        35.57196         2.82650
C         30.58570        37.24369         1.52903
C         29.36519        37.93823         1.47240
C         30.55202        40.03459         0.65657
C         29.31268        39.24035         0.77667
C         30.49524        41.36737         0.27531
C         29.22604        42.04958         0.16384
C         30.43452        43.95073        -0.90620
C         29.22762        43.41921        -0.18632
C         30.29520        45.40597        -1.23775
C         29.32095        46.27720        -0.83673
C         30.59759        48.46477        -1.28906
C         29.32997        47.73261        -1.06862
C         30.52116        49.85506        -1.61926
C         29.32315        50.56767        -1.68157
C         29.25093        51.87373        -2.19263
C         31.98308        16.72453        -0.67627
C         33.28669        18.85858        -0.46710
C         32.05451        18.16040        -0.60241
C         33.32275        20.25567        -0.40880
C         32.11756        20.99079        -0.36362
C         33.37088        23.15444         0.06374
C         32.18560        22.48646        -0.59526
C         33.34177        24.51961         0.46681
C         32.11957        25.31160         0.37516
C         33.23529        27.28764         1.37394
C         32.04674        26.63561         0.79403
C         33.27717        28.75587         1.42334
C         32.03761        29.45647         1.50696
C         33.26463        31.55409         1.89489
C         32.04707        30.81543         1.87971
C         33.27414        32.98286         2.03686
C         32.05036        33.72042         2.50239
C         33.10377        35.81447         1.71809
C         31.95610        35.20164         2.17334
C         33.08556        37.16005         1.08742
C         31.77934        37.88030         0.93691
C         33.01483        40.04419         0.76397
C         31.80899        39.35745         0.82020
C         33.00073        41.52024         0.79460
C         31.70393        42.21458         0.38883
C         32.95773        44.31005        -0.16696
C         31.73060        43.57233        -0.18425
C         33.02657        45.77590        -0.36211
C         32.17367        46.52732        -1.12618
C         31.88783        47.93770        -1.11493
C         34.63042        21.01826        -0.49421
C         35.79037        23.10448         0.32624
C         34.58903        22.44185         0.04400
C         35.80166        24.48186         0.66584
C         34.55759        25.15130         0.81758
C         35.79123        27.32050         1.24798
C         34.55878        26.52842         1.32845
C         35.75681        28.71299         1.40067
C         34.50514        29.43519         1.54599
C         35.74285        31.57913         1.68454
C         34.50591        30.86147         1.68756
C         35.72627        33.00811         1.72594
C         34.47844        33.68102         1.89689
C         35.67311        35.88278         1.39922
C         34.43150        35.15781         1.86222
C         35.55244        37.19912         0.71300
C         34.31444        37.96880         0.91835
C         35.50605        40.07466         0.36214
C         34.27547        39.32775         0.68038
C         35.45420        41.46899         0.21598
C         34.31323        42.28927         0.75174
C         34.15902        43.67279         0.16829
C         37.01775        25.22734         0.80504
C         38.23477        27.37739         0.95822
C         37.02362        26.61695         1.00021
C         38.23423        28.75562         1.12737
C         36.98592        29.46063         1.35903
C         38.25665        31.56635         1.61176
C         36.97075        30.84885         1.53607
C         38.23907        33.08031         1.56331
C         36.93649        33.76764         1.48744
C         38.12557        35.85478         0.83116
C         36.91784        35.11943         1.18330
C         38.09235        37.20948         0.54087
C         36.82723        37.93226         0.33226
C         36.73239        39.38462         0.23194
C         39.45864        29.50875         1.00568
C         40.68704        31.65820         1.01616
C         39.49230        30.86919         1.19852
C         40.66762        33.02456         0.96817
C         39.44903        33.78894         1.09618
C         39.37611        35.12706         0.79189
O         11.41847        31.62527        -0.97408
O         21.48190        23.45842        -2.05845
O         26.28849        32.07449         0.55938
O         20.36999        24.72729         1.32465
O         18.51015        28.86953         2.46019
O         27.82374        29.87529        -0.48425
O         24.28708        17.84849         0.17793
O         23.48750        41.45160         3.43013
O         21.02453        14.66075        -3.80269
O         13.42594        41.14434         0.32355
O         32.32899        37.14087        -0.20144
O         23.85507         5.84239         0.79625
O         17.53747        24.72058         1.41779
O         31.34316        45.83526        -2.05256
O         18.08869        41.42369         3.78213
O         11.38588        25.24072        -1.87437
O         28.08835        19.36920         0.69999
O         38.42404        32.36548         2.83449
O         19.93883        31.25494         3.18258
O         12.58241        38.10771         0.19948
O         21.22597        41.77544         0.59904
O         25.13991        20.59187         0.65062
O         22.34003        14.04280        -3.52682
O         14.03442        27.40291        -1.46089
O         10.75350        36.72774         2.92568
O          9.65235        30.44429         1.88219
O         22.27893        20.57161         0.23619
O         20.03537        45.46801        -0.65666
O         10.11822        34.13600        -0.62663
O         22.08750        26.75167        -0.96925
O         28.46875        24.05662        -1.98549
O         24.15973        26.85141         1.95271
O         29.62817        17.65176        -2.27972
O         26.33693        14.22285         0.43516
O         16.24149        47.52249        -1.48416
O         30.63857        25.47777        -1.56666
O         20.18537        55.02958        -0.67075
O         23.01612        57.82271        -2.32453
O         15.88124        45.98653         2.69198
O         19.00861        27.51595        -0.85314
O         35.97142        37.19317        -0.67611
O         25.42710        44.75194        -1.10279
O         22.60018        15.51279        -0.13052
O         19.95727        50.62067         0.60441
O         29.56627        34.58944         3.81781
O         35.28204        35.89125         2.81801
O         26.39265        33.15453         3.99829
O         33.79427        26.66957         2.58130
O         21.84793        38.98891         4.01017
O         13.67208        24.98832         1.11355
O         21.13393        20.91465        -3.16391
O         27.72006        12.04214        -2.13328
O         26.56608        18.88923        -2.45982
O         20.77150        10.96292        -2.97453
O         28.43762        39.24379        -0.38988
O         31.77334        33.25006         3.87621
O         32.15237        42.11510         1.82449
O         21.40769        35.91776         1.01606
O         20.07883        33.69509         3.34250
O         17.77839        37.95942         0.98857
O         25.49286        24.81931         1.10698
O         16.99552        50.18536        -1.52272
O         27.74330        46.35057         1.10101
O         26.27256        27.64519        -0.96743
O         19.04087        19.08424        -3.29169
O         21.97788        31.25338         0.17173
H         22.80377        30.88554        -0.20984
O         34.94701        21.11273        -1.90491
H         35.74397        21.67442        -2.00269
O         22.81545        49.29853        -2.72845
H         22.93312        50.06348        -3.33127
O         30.50531        43.23853        -2.18790
H         31.08097        43.77661        -2.77569
O         18.07957        14.73686        -3.78874
H         18.97229        14.87724        -4.17645
O         22.56409        16.99321        -3.43290
H         22.15116        17.73150        -3.92973
O         20.87093        45.43272         2.90683
H         20.90287        44.76988         3.62851
O         22.03209        29.38591         3.32002
H         22.06884        28.42968         3.52973
O         21.73631        55.38609        -4.70944
H         20.89961        54.89640        -4.85540
O         13.99188        39.72586         3.66987
H         14.74253        39.36895         4.19074
O         23.54885        19.61454        -3.03295
H         22.73079        20.13097        -3.32137
O         14.71225        35.77973        -0.34706
H         13.84974        35.65598        -0.79810
O         28.22918        50.38087         0.40634
H         28.25773        51.36123         0.42565
O         29.68521        21.23638         1.41788
H         29.20380        20.46058         1.79112
O         22.88122        10.66487         0.81300
H         23.64015        11.18593         1.15349
O         16.57579        18.54527        -3.59804
H         17.42257        18.57639        -4.10617
O         30.73885        30.69577         3.83877
H         31.35519        31.19019         4.42628
O         16.03159        29.38192        -1.35951
H         15.35221        28.85597        -1.84803
O         23.48072        37.13551         4.32229
H         23.16719        37.93650         4.80430
O         18.04544        35.88900         4.06424
H         18.49143        35.03633         4.26418
O         14.29890        47.93444         2.32677
H         14.61039        47.38667         3.08376
O         32.46271        22.61195        -2.03392
H         33.27532        22.08402        -2.23139
O         29.01375        28.80638         2.77512
H         29.60729        29.15413         3.48427
O         34.68289        42.56179         2.15526
H         33.83190        42.71419         2.63065
O         18.72151        32.04448        -0.14074
H         17.96985        32.37665        -0.67719
H          4.83843        31.33823         0.81735
H          4.80355        33.77587         1.14188
H          7.33431        27.10887         0.02431
H          6.09696        29.22828         0.49610
H          6.03688        35.93518         1.45292
H          7.23443        38.09874         1.66423
H          9.85744        22.70138        -0.42276
H          8.52276        24.99091        -0.20209
H          8.50279        40.33034         1.57689
H          9.76084        42.50126         1.63463
H         12.40671        18.51079        -1.16212
H         11.13069        20.60078        -0.88859
H         11.02411        44.66841         1.47153
H         12.23592        46.65897         0.99109
H         14.86442        14.36246        -1.36174
H         13.66948        16.43611        -1.45633
H         13.73961        47.74016        -0.91824
H         14.35730        51.41169         0.23354
H         17.18367        10.09453        -1.31535
H         16.04451        12.21494        -1.35246
H         16.15061        53.16541        -0.20152
H         17.14442        54.76408        -1.75088
H         19.55811         5.74226        -0.72299
H         18.35279         7.89405        -0.97170
H         18.41860        56.80145        -2.66985
H         19.55547        58.51913        -4.03782
H         22.85455         2.39145        -0.59897
H         20.86531         3.62867        -0.33063
H         22.94050        61.36996        -5.90803
H         20.79344        60.32708        -5.26720
H         25.04276         3.29442        -1.04398
H         26.42925         5.73067        -1.36592
H         26.39913        58.37277        -4.46446
H         25.11618        60.30739        -5.40563
H         27.68991         7.71810        -0.69716
H         28.84693         9.71488         0.00570
H         28.91186        54.38791        -3.06907
H         27.65556        56.39719        -3.71711
H         30.44396        12.05367        -0.15981
H         31.63413        14.03974        -0.51489
H         31.45161        50.36041        -1.92301
H         30.16741        52.35462        -2.56763
H         32.91671        16.15651        -0.54124
H         34.22901        18.29032        -0.48061
H         33.75287        46.30337         0.27476
H         32.71918        48.65077        -0.99499
H         35.45105        20.44166         0.02095
H         36.74513        22.56169         0.24617
H         36.37597        42.00268        -0.06231
H         35.07135        44.28955         0.18482
H         37.97538        24.70393         0.66544
H         39.18389        26.85514         0.76629
H         39.03674        37.74549         0.36282
H         37.66064        39.96782         0.13685
H         40.37809        28.97070         0.72911
H         41.63428        31.12357         0.85094
H         41.59896        33.57323         0.76347
H         40.28024        35.66281         0.46515
