         638
 CSIRO Nanostructure Databank - Neutral Graphene Oxide Data Set
C         23.11150        69.83841         2.07072
C         23.16887        71.28242         1.81165
C         22.04110        72.03352         2.18674
C         23.17675        74.14110         1.83029
C         22.02701        73.43773         2.14202
C         25.51709        65.56811         1.08300
C         25.41883        66.96776         1.21835
C         24.17094        67.51683         1.59253
C         25.65405        69.99092         0.75595
C         23.85721        68.90519         1.39320
C         25.59640        71.37674         1.06943
C         24.34832        72.00754         1.40369
C         25.59646        74.15507         1.38719
C         24.37744        73.44091         1.51842
C         27.83582        61.34904        -0.15455
C         27.92859        62.80051         0.27162
C         26.74288        63.49039         0.56588
C         27.96689        65.61761         0.70365
C         26.72602        64.88340         0.80018
C         27.97573        67.01744         0.84631
C         26.73884        67.74688         1.32884
C         28.02579        69.90311         1.00968
C         26.78977        69.21267         0.94407
C         28.04883        71.33565         1.03834
C         26.82746        72.06632         1.14373
C         28.08477        74.17788         1.26200
C         26.84312        73.50031         1.27141
C         30.49058        57.11641         0.25775
C         30.52630        58.59368         0.53437
C         29.22509        59.33346         0.35135
C         30.34610        61.37244        -0.56627
C         29.15406        60.61825        -0.04130
C         30.40021        62.81105        -0.10590
C         29.16442        63.48183         0.26520
C         30.40594        65.62129         0.41098
C         29.18841        64.90611         0.47366
C         30.41858        67.02889         0.49100
C         29.19398        67.73352         0.72078
C         30.45236        69.86786         0.67421
C         29.24130        69.16586         0.85587
C         30.49714        71.29525         0.88999
C         29.28977        72.02078         1.07961
C         30.55242        74.11700         1.35430
C         29.32258        73.47198         1.21698
C         32.87649        52.84577         0.17504
C         32.81715        54.22477        -0.10933
C         31.66471        54.97192         0.11080
C         32.89963        57.09787        -0.30669
C         31.64406        56.40613        -0.01595
C         32.90231        58.55322        -0.31641
C         31.69776        59.27511        -0.11911
C         32.84995        61.36367        -0.59085
C         31.65679        60.65325        -0.38881
C         32.79055        62.85224        -0.83998
C         31.58856        63.48254        -0.16700
C         32.88431        65.66386        -0.07372
C         31.70473        64.86343         0.42119
C         32.87877        67.04935         0.01025
C         31.64435        67.76982         0.28806
C         32.81047        69.96196        -0.19706
C         31.63764        69.16345         0.31688
C         32.91274        71.34753         0.41061
C         31.74364        71.97130         0.91629
C         33.04751        74.08950         1.18091
C         31.81523        73.33123         1.55793
C         35.31126        48.59562         0.75231
C         35.30703        50.01132         0.56814
C         34.10353        50.71894         0.45115
C         35.32333        52.75475        -0.16810
C         34.08490        52.10221         0.13898
C         35.29749        54.13236        -0.69571
C         33.96820        54.88496        -0.83460
C         35.32751        57.05645        -0.67814
C         34.07319        56.37904        -0.55202
C         35.34207        58.53136        -0.99694
C         34.08502        59.25979        -0.60993
C         35.33303        61.40318        -0.66099
C         34.07972        60.67195        -0.63292
C         35.31297        62.83615        -0.59033
C         34.09353        63.55429        -0.53708
C         35.34695        65.66466        -0.27411
C         34.10681        64.94839        -0.32477
C         35.35080        67.10377        -0.17916
C         34.11698        67.79625        -0.11051
C         35.31607        69.92378        -0.24806
C         34.11484        69.21186        -0.10721
C         35.27089        71.42517        -0.44703
C         34.09832        72.06255         0.26279
C         35.39667        74.17103         0.48222
C         34.16007        73.46305         0.63855
C         37.77301        44.35550         1.14148
C         37.74515        45.75935         1.12679
C         36.52373        46.48116         1.01654
C         37.74546        48.66697         1.30256
C         36.49562        47.88539         0.96401
C         37.78482        50.06164         0.73299
C         36.56265        50.72288         0.46134
C         37.81099        52.80750        -0.00807
C         36.55313        52.09587         0.05650
C         37.82723        54.19941        -0.24509
C         36.59592        54.90000        -0.65898
C         37.78184        57.08913        -0.43466
C         36.55861        56.38087        -0.61665
C         37.76249        58.52491        -0.33385
C         36.59145        59.25021        -0.54549
C         37.76544        61.43861        -0.42593
C         36.55184        60.69620        -0.53406
C         37.78044        62.83375        -0.43673
C         36.54596        63.55629        -0.46559
C         37.84057        65.68108         0.01318
C         36.55891        64.96045        -0.33151
C         37.83845        67.13871        -0.35366
C         36.57409        67.83232        -0.29993
C         37.75714        69.99897        -0.84153
C         36.53526        69.23935        -0.38965
C         37.77829        71.42587        -0.34199
C         36.59268        72.10049        -0.14759
C         37.83475        74.20952         0.17972
C         36.60006        73.51617         0.17543
C         40.23464        40.06069         0.41516
C         40.26283        41.54986         0.30304
C         39.01032        42.24094         0.78501
C         40.27022        44.37318         0.78474
C         38.97917        43.60208         0.96335
C         40.23415        45.74787         1.47753
C         38.98806        46.51672         1.13990
C         40.26469        48.61938         1.02357
C         39.01791        47.89086         1.07936
C         40.27190        50.01328         0.83957
C         39.02119        50.72814         0.64298
C         40.25027        52.85071         0.29789
C         39.03685        52.13032         0.30205
C         40.26130        54.23075         0.01010
C         39.03598        54.92608        -0.21804
C         40.25249        57.04749        -0.25430
C         39.02715        56.36898        -0.30977
C         40.34536        58.50011         0.11905
C         39.00604        59.24071         0.05350
C         40.27163        61.43979        -0.37555
C         39.01453        60.73034        -0.11359
C         40.26421        62.80325        -0.55766
C         39.03660        63.56190        -0.45249
C         40.31741        65.67861        -0.56421
C         39.07835        64.94478        -0.41718
C         40.31010        67.10304        -0.53379
C         39.04490        67.81998        -0.49205
C         40.23802        69.97238        -0.55512
C         39.05731        69.26380        -0.60213
C         40.23885        71.41701        -0.51030
C         39.04315        72.11523        -0.30244
C         40.27289        74.24735        -0.17255
C         39.05521        73.55038        -0.08549
C         42.61134        35.74875         0.36290
C         42.61481        37.16061         0.47871
C         41.41293        37.89909         0.46760
C         42.68357        39.99164         0.76027
C         41.41315        39.31955         0.54630
C         42.67735        41.41009         1.02737
C         41.51335        42.13121         0.91425
C         42.77342        44.30473         1.33733
C         41.47931        43.56828         1.23791
C         42.78977        45.76839         0.93108
C         41.50324        46.51261         1.19806
C         42.78953        48.59702         0.93143
C         41.51187        47.87866         1.05057
C         42.74965        50.04075         0.76524
C         41.53434        50.71222         0.74161
C         42.78182        52.86050         0.28970
C         41.51919        52.21905         0.81851
C         42.75000        54.25244        -0.04175
C         41.50932        54.94095        -0.10697
C         42.71076        57.05351        -0.55066
C         41.49040        56.34438        -0.30752
C         42.67385        58.48477        -0.80023
C         41.49485        59.19941        -0.57904
C         42.58306        61.35707        -1.27356
C         41.57915        60.68671        -0.36865
C         42.61396        62.83706        -1.17216
C         41.49870        63.53756        -0.81091
C         42.77418        65.69660        -0.91110
C         41.53249        64.98709        -0.77274
C         42.75595        67.12018        -0.79685
C         41.54327        67.80055        -0.61681
C         42.62886        69.97198        -1.30887
C         41.58249        69.29591        -0.40520
C         42.63065        71.47205        -1.08535
C         41.48943        72.13344        -0.69223
C         42.62203        74.32920        -0.82704
C         41.48605        73.59626        -0.55499
C         45.01195        32.88834         0.11952
C         43.81359        33.59703         0.19046
C         45.07053        35.70686         0.37461
C         43.81363        35.01383         0.31472
C         45.09897        37.11672         0.51618
C         43.87670        37.85221         0.58218
C         45.16730        39.96499         0.87415
C         43.88968        39.26517         0.75114
C         45.19718        41.31520         1.11858
C         43.95073        42.06760         1.53644
C         45.29827        44.27933         1.61820
C         44.04616        43.53553         1.06255
C         45.28959        45.76385         1.26054
C         43.99027        46.49426         1.54304
C         45.28578        48.67871         1.27383
C         43.98605        47.94310         1.10756
C         45.22719        50.09627         0.77494
C         44.02525        50.75105         0.64634
C         45.22845        52.86536         0.04799
C         43.99101        52.17871         0.33667
C         45.19950        54.25523        -0.28763
C         43.96358        54.95293        -0.30680
C         45.17412        57.06227        -0.81239
C         43.93658        56.36120        -0.57804
C         45.14581        58.48770        -1.06317
C         43.90504        59.15058        -1.15482
C         45.09752        61.32797        -1.40319
C         43.83262        60.57585        -1.56045
C         44.96710        62.60759        -0.96648
C         43.89435        63.52423        -1.51339
C         45.22922        65.72706        -1.30990
C         44.00775        65.00027        -1.14576
C         45.24730        67.14716        -1.29615
C         44.06553        67.88196        -0.70428
C         45.16563        70.00635        -1.38725
C         43.99087        69.32513        -1.14698
C         45.12066        71.47500        -1.68450
C         43.82202        72.21670        -1.54313
C         45.10138        74.17674        -0.61905
C         43.87913        73.74689        -1.40923
C         46.23930        33.55009         0.16028
C         47.52959        35.65167         0.29988
C         46.29710        34.96475         0.28428
C         47.58771        37.06068         0.41658
C         46.36011        37.80586         0.55932
C         47.65597        39.88379         0.68696
C         46.40592        39.20587         0.72330
C         47.69878        41.30688         0.75852
C         46.50865        42.02150         1.34580
C         47.74156        44.20370         0.88023
C         46.49061        43.51141         1.12389
C         47.72350        45.71127         0.82995
C         46.44473        46.45496         0.95729
C         47.64402        48.55351         0.33328
C         46.48414        47.89145         0.77541
C         47.68596        49.98010         0.18250
C         46.55038        50.82497         0.73726
C         47.64861        52.83061        -0.33271
C         46.45872        52.18987         0.10728
C         47.61440        54.20894        -0.69800
C         46.41699        54.93657        -0.60847
C         47.63797        57.07193        -1.04172
C         46.39112        56.36440        -0.85066
C         47.62650        58.51052        -1.17697
C         46.40222        59.17577        -1.20916
C         47.63892        61.40215        -1.28739
C         46.38986        60.59840        -1.71064
C         47.66432        62.83508        -1.90470
C         46.70871        63.76576        -1.20648
C         47.66447        65.67911        -2.31216
C         46.49186        65.04360        -1.60538
C         47.65936        67.19756        -2.09463
C         46.40418        67.89091        -1.67041
C         47.67542        70.10141        -1.84632
C         46.41107        69.29479        -1.56878
C         47.59154        71.45162        -1.12620
C         46.41437        72.31008        -1.65519
C         47.51546        74.10193        -0.21876
C         46.30780        73.55433        -0.77943
C         48.82098        37.74963         0.36306
C         50.09023        39.88075         0.31922
C         48.87391        39.15704         0.44649
C         50.09577        41.28524         0.25994
C         48.85588        41.99667         0.42542
C         50.04867        44.17291        -0.35480
C         48.71295        43.44333        -0.00784
C         50.06829        45.64390         0.02565
C         48.88933        46.38982         0.22978
C         50.06297        48.44269        -0.32420
C         48.86592        47.79016         0.05662
C         50.02656        49.85981        -0.83706
C         48.82569        50.64617        -0.32203
C         50.08014        52.69660        -1.06027
C         48.84156        52.04760        -0.48159
C         50.11442        54.19676        -0.92290
C         48.82504        54.88173        -1.30147
C         50.10138        57.06132        -1.13341
C         48.84366        56.37202        -1.10848
C         50.12358        58.49851        -1.27735
C         48.89161        59.22144        -1.35450
C         50.12808        61.36378        -1.50146
C         48.91672        60.62740        -1.51904
C         50.13420        62.78671        -1.52953
C         48.98305        63.54752        -1.80472
C         50.18843        65.65788        -1.65261
C         48.96988        64.94979        -1.91187
C         50.09289        67.09472        -1.31379
C         48.95105        67.92533        -1.78988
C         50.06302        69.98775        -0.90360
C         48.91562        69.34433        -1.40766
C         50.08821        71.41066        -0.71332
C         48.91708        72.24341        -1.17866
C         49.96083        74.14834         0.07923
C         48.77924        73.53102        -0.38293
C         51.30752        42.03149         0.13461
C         52.51035        44.16324         0.04903
C         51.31657        43.43347         0.04823
C         52.55217        45.59170        -0.08049
C         51.28294        46.33293        -0.13369
C         52.57714        48.40354        -0.65397
C         51.26953        47.73181        -0.31679
C         52.53856        49.89981        -0.45800
C         51.33397        50.59624        -0.60136
C         52.52917        52.71847        -0.45013
C         51.34071        52.00859        -0.61369
C         52.52859        54.20543        -0.20336
C         51.27446        54.90371        -0.72438
C         52.54600        57.08867        -0.73415
C         51.28780        56.34283        -0.88151
C         52.59450        58.49589        -1.16509
C         51.37156        59.18994        -1.33874
C         52.59561        61.31947        -1.47603
C         51.39490        60.64141        -1.44345
C         52.61924        62.79526        -1.54736
C         51.37212        63.51116        -1.09672
C         52.59264        65.69777        -1.01488
C         51.37619        64.98927        -1.37496
C         52.55299        67.04838        -0.66874
C         51.27660        67.77846        -0.69030
C         52.45147        69.91709        -0.29029
C         51.28101        69.25592        -0.63332
C         52.45810        71.33123        -0.11004
C         51.25091        72.06423        -0.29693
C         52.40220        74.13488         0.41571
C         51.22000        73.49259         0.03227
C         53.74246        46.28511        -0.00685
C         55.01946        48.49892        -0.08340
C         53.71808        47.78188         0.15733
C         55.02495        49.87383        -0.24110
C         53.76155        50.59770        -0.35152
C         55.00267        52.72770        -0.49407
C         53.76173        52.01620        -0.37777
C         54.99528        54.13170        -0.77074
C         53.82303        54.85461        -0.65481
C         55.12740        57.01528        -0.98814
C         53.86424        56.31649        -0.65865
C         55.07061        58.46225        -1.09575
C         53.85471        59.14591        -1.25132
C         55.03935        61.32556        -0.89734
C         53.91117        60.60855        -1.66588
C         55.14426        62.81787        -1.15011
C         53.89566        63.56246        -1.34268
C         55.05181        65.63946        -0.64100
C         53.84254        64.97751        -0.95313
C         55.04106        67.04048        -0.33783
C         53.71695        67.64938         0.07533
C         54.93577        69.93442        -0.31606
C         53.69776        69.21462         0.22468
C         54.90926        71.38094        -0.03378
C         53.69823        72.02176         0.15526
C         54.83655        74.07906         0.84211
C         53.66421        73.45690         0.46432
C         56.24235        50.63490        -0.23679
C         57.47916        52.78614        -0.38184
C         56.23848        52.01910        -0.36969
C         57.51797        54.09709        -0.72249
C         56.27577        54.78017        -1.26152
C         57.59845        56.98575        -1.24597
C         56.29462        56.29209        -1.11677
C         57.60356        58.47759        -1.18702
C         56.31665        59.21051        -1.11792
C         57.62303        61.31510        -1.10703
C         56.33997        60.57665        -1.06595
C         57.61246        62.82275        -1.01113
C         56.30813        63.51908        -0.93576
C         57.51708        65.62573        -0.42897
C         56.30509        64.94569        -0.71089
C         57.49674        67.03963        -0.23168
C         56.24207        67.72921        -0.25004
C         57.49760        69.92280        -0.05187
C         56.25072        69.20368        -0.33287
C         57.48591        71.39898        -0.07785
C         56.17156        72.20888        -0.15450
C         57.36687        74.10256         1.06079
C         56.10866        73.27865         0.96766
C         58.85304        54.76908        -0.95526
C         60.00545        56.95902        -0.62695
C         58.85512        56.27988        -0.85023
C         60.12327        58.45683        -0.87524
C         58.79110        59.12626        -0.50303
C         59.99219        61.30813        -0.36411
C         58.85018        60.62147        -0.69747
C         59.99162        62.76184        -0.26872
C         58.81754        63.50445        -0.51364
C         59.95289        65.60523         0.05560
C         58.76680        64.90803        -0.30262
C         59.90796        67.04349         0.25547
C         58.69047        67.75726         0.07798
C         59.86131        69.88873         0.68740
C         58.66216        69.20489         0.23350
C         59.87480        71.28764         0.87832
C         58.71490        72.09719         0.46357
C         59.79994        74.12307         1.41157
C         58.60206        73.49309         0.97589
C         61.24575        59.18166        -0.15816
C         62.32791        61.29587         0.50228
C         61.20300        60.55159         0.00191
C         62.33943        62.68556         0.57313
C         61.15617        63.44782         0.17818
C         62.39618        65.54644         0.61515
C         61.14408        64.85249         0.26434
C         62.33618        67.01783         0.87296
C         61.05376        67.74042         0.72425
C         62.24636        69.80045         1.43028
C         61.03018        69.12240         0.99000
C         62.22790        71.24486         1.59259
C         61.03455        71.96262         1.36035
C         62.14297        74.03798         2.11622
C         60.99683        73.39820         1.60049
C         63.48271        63.38170         1.08772
C         64.65703        65.48084         1.67231
C         63.53218        64.76859         1.16786
C         64.64389        66.86627         1.89703
C         63.31840        67.59278         1.86253
C         64.71921        69.78767         1.84756
C         63.39634        69.08808         1.71995
C         64.57549        71.19382         2.36997
C         63.38583        71.91072         2.10642
C         64.45902        73.95537         2.96607
C         63.32855        73.32218         2.40240
C         65.76502        67.56201         2.38683
C         66.82870        69.63049         3.17943
C         65.78205        68.96836         2.54555
C         66.83211        71.04851         3.36480
C         65.67169        71.81909         2.98797
C         66.75036        73.83905         3.89933
C         65.61851        73.22554         3.28767
C         67.90968        71.70356         3.98325
C         67.86730        73.08728         4.22889
O         50.19910        67.20829         0.15847
O         62.86359        66.53721        -0.39221
O         55.53814        69.62159        -1.59759
O         48.46224        67.78003        -3.19077
O         38.85913        60.08970         1.24992
O         53.28555        63.31754        -2.73373
O         42.84410        60.85734        -2.63405
O         57.81520        57.81425        -2.47463
O         42.07081        43.93637         2.54533
O         53.67562        69.54609         1.60017
O         30.13896        61.51479        -2.07545
O         36.09019        54.31075        -1.92745
O         24.51551        69.40549         0.23775
O         44.29069        71.74313        -2.86930
O         48.16310        44.99388         2.06345
O         53.23213        56.87334         0.56830
O         45.92549        63.25014        -0.18867
O         58.48199        71.97223        -0.99741
O         50.17917        44.20275        -1.76708
O         57.79669        62.15149        -2.31244
O         60.38419        58.61891        -2.29081
H         59.57023        58.32421        -2.77005
O         52.48189        54.35635         1.25242
H         52.64703        55.31582         1.43344
O         32.01271        64.63306         1.85573
H         32.04205        65.51146         2.29195
O         56.12222        72.87258        -1.42742
H         57.03687        72.85466        -1.79758
O         32.56212        70.16962        -1.62689
H         33.32617        70.69806        -1.97219
O         31.93022        73.05821         3.03176
H         31.08806        72.63435         3.30555
O         46.74256        41.95534         2.81069
H         45.91149        42.29824         3.23585
O         49.25055        72.60803        -2.53690
H         48.44625        73.02864        -2.93128
O         37.58856        70.11046        -2.31051
H         38.44078        70.43031        -2.67901
O         41.51148        52.53277         2.26220
H         42.36848        52.23301         2.63327
O         62.70334        67.34071         3.17548
H         63.29510        67.71813         3.86029
O         27.42480        61.31824        -1.54396
H         28.05951        61.88022        -2.04371
O         45.31355        44.21071         3.07294
H         46.15340        44.63061         3.36391
O         56.04019        72.50723         2.21320
H         55.74960        73.10630         2.93202
O         47.95595        43.35154        -1.24671
H         48.63487        43.58216        -1.95415
O         54.66056        61.22838         0.51064
H         55.36709        61.63084         1.05729
O         46.65522        72.77784        -3.00257
H         46.77133        71.97051        -3.56219
O         30.78925        58.68407         1.99098
H         31.63730        58.22160         2.16279
O         51.41152        63.40072         0.37789
H         50.88560        64.13950         0.75334
O         59.20231        54.46118        -2.32920
H         59.94608        55.04222        -2.59475
O         37.89162        65.67491         1.49733
H         37.90216        64.73547         1.78186
O         42.22427        69.74913        -2.68765
H         42.83850        70.28611        -3.24251
O         35.37578        58.59119        -2.47890
H         36.12090        58.02701        -2.77735
O         40.75405        58.48072         1.54021
H         40.06527        58.99142         2.03356
O         53.37886        48.02677         1.56635
H         54.09969        47.66019         2.12001
O         35.04011        71.60379        -1.89395
H         35.79881        71.15779        -2.34644
O         37.69490        48.86193         2.76439
H         37.82170        47.98156         3.17995
O         45.49620        48.77333         2.75776
H         44.75257        49.30843         3.11311
O         48.65798        54.70132        -2.78082
H         49.25484        55.34524        -3.22042
O         47.29420        62.77894        -3.30659
H         47.31832        63.70307        -3.67373
O         65.22083        69.92681         0.46415
H         64.54827        70.42969        -0.04316
O         56.31656        54.54258        -2.70850
H         57.26239        54.59607        -2.98403
O         26.91871        67.80951         2.80089
H         26.97853        66.88519         3.12522
O         43.92986        42.03641         2.98789
H         43.64320        41.14193         3.26614
O         33.58884        54.80312        -2.23915
H         34.42755        54.83927        -2.75585
O         54.20383        60.64140        -3.08361
H         54.06374        61.57173        -3.38455
O         43.78959        46.50436         2.97996
H         44.54638        47.00003         3.36776
O         40.45855        44.61422        -0.64237
H         40.36229        43.72842        -1.08967
O         29.93747        60.18894        -2.61473
H         28.97106        60.03034        -2.45232
O         40.35509        41.89459        -1.16900
H         41.11417        41.38682        -1.53164
O         47.31320        71.13067         0.25189
H         47.41085        71.94477         0.79106
O         44.05044        63.47037        -2.97367
H         43.69923        62.59463        -3.26848
O         32.57669        63.02517        -2.28098
H         31.80926        62.45417        -2.53084
O         42.95807        45.79705        -0.51934
H         42.09256        45.48848        -0.90100
O         46.91547        51.06822         2.14867
H         46.80971        50.20423         2.61700
O         53.47750        67.12638         1.41119
H         53.44839        67.95925         1.98732
O         44.34887        67.94661         0.74883
H         43.65258        68.53811         1.13276
O         47.58707        61.50171         0.15660
H         48.43829        61.86923         0.47484
O         58.56013        58.89660         0.91898
H         59.33986        59.24474         1.40329
O         47.75038        70.35648        -3.27788
H         47.97922        69.49242        -3.70309
O         44.03587        74.32486        -2.73154
H         44.74178        73.80143        -3.18119
O         42.15596        60.84837         0.97780
H         41.78906        60.11593         1.53231
O         40.10971        45.57132         2.91797
H         40.92514        45.10045         3.22739
O         42.03981        69.52886         0.96807
H         41.35033        69.18597         1.57563
O         47.49577        65.46544        -3.74462
H         48.08991        66.10526        -4.20053
O         46.37067        60.38892        -3.14459
H         46.49366        61.26510        -3.58701
O         49.87790        49.73489        -2.28593
H         49.88944        50.66028        -2.64931
O         52.85025        48.16921        -2.05697
H         52.04952        48.43340        -2.56089
O         44.22026        43.45054        -0.36578
H         44.05596        44.35050        -0.74736
O         50.02788        52.43872        -2.51912
H         49.37206        53.08778        -2.89329
H         23.18944        75.23960         1.86893
H         25.57181        75.25347         1.45913
H         28.10011        75.27475         1.34873
H         30.58564        75.21122         1.46066
H         33.10761        75.15234         1.45989
H         35.42095        75.24301         0.72957
H         37.83984        75.29210         0.37589
H         40.28039        75.33861        -0.03227
H         42.58509        75.42568        -0.73735
H         45.04591        75.10878        -0.03526
H         47.42952        75.04658         0.34198
H         49.90539        75.16213         0.50600
H         52.36702        75.19947         0.69420
H         54.83784        75.14705         1.11187
H         57.30192        75.13674         1.43625
H         59.76472        75.18083         1.71313
H         62.10602        75.11826         2.32148
H         64.42149        75.03440         3.17786
H         66.72413        74.91692         4.11469
H         22.45989        69.51464         2.89614
H         21.13901        71.50221         2.52292
H         21.10671        73.97683         2.40673
H         24.58955        64.97587         1.12576
H         23.38225        66.82647         1.93463
H         27.04340        60.81811         0.42920
H         25.79228        62.93680         0.58268
H         29.57363        56.56549         0.52002
H         28.31005        58.82152         0.69340
H         31.96492        52.34030         0.52976
H         30.76746        54.47309         0.50954
H         34.35867        48.05018         0.66723
H         33.14952        50.19218         0.59919
H         36.81742        43.80871         1.16094
H         35.58293        45.92241         0.89300
H         39.28504        39.53581         0.23330
H         38.08602        41.64983         0.87566
H         41.65018        35.21741         0.29621
H         40.45630        37.36892         0.35101
H         44.98958        31.79359         0.02356
H         42.85352        33.06288         0.14773
H         47.17636        32.97890         0.09352
H         48.46587        35.08131         0.20543
H         49.74959        37.17883         0.21430
H         51.03633        39.32907         0.21403
H         52.26104        41.48168         0.08089
H         53.45623        43.63780         0.26590
H         54.69667        45.74012         0.08072
H         55.97099        47.95617         0.03811
H         57.19962        50.10192        -0.13200
H         58.41244        52.25670        -0.13136
H         59.63442        54.32977        -0.27096
H         60.92666        56.39393        -0.40407
H         62.18069        58.64040         0.05559
H         63.22680        60.73843         0.80691
H         64.33681        62.78801         1.44789
H         65.58145        64.91926         1.88048
H         66.67100        66.99169         2.64875
H         67.65778        69.04412         3.60557
H         68.79659        71.12459         4.27839
H         68.73032        73.57459         4.70434
