         268
 CSIRO Nanostructure Databank - Neutral Graphene Oxide Data Set
C        -11.16823         0.79884        -0.17939
C        -10.05640         1.63928         0.26669
C         -8.97525         0.99398         1.08547
C         -7.60661         1.59219         0.77165
C         -6.31472         0.85627         0.55454
C         -5.02869         1.59956         0.66163
C         -3.73485         0.83919         0.91979
C         -2.49316         1.60715         0.42610
C         -1.20099         0.87909         0.34500
C         -0.02533         1.32370        -0.51651
C          1.27745         0.81508         0.11381
C          2.43728         1.48323        -0.11235
C          3.74810         0.90976         0.31731
C          5.00405         1.49521        -0.27818
C          6.32338         0.88099         0.07994
C          7.53320         1.57892        -0.47083
C          8.82583         0.85894        -0.50491
C         10.13115         1.65766        -0.50702
C         11.28870         0.85736         0.05887
C         -9.98100         2.99369         0.13955
C         -8.92870         3.80546         0.87620
C         -7.58513         3.06991         1.04765
C         -6.27499         3.75828         0.84313
C         -5.04208         2.96495         0.57051
C         -3.88132         3.67889        -0.02963
C         -2.63881         2.90311        -0.30940
C         -1.37020         3.61870        -0.69478
C         -0.06711         2.84152        -0.79961
C          1.16682         3.64034        -0.69262
C          2.45943         2.83414        -0.84497
C          3.67312         3.64004        -0.31348
C          4.98256         2.93209        -0.67274
C          6.28207         3.73423        -0.90360
C          7.51360         3.04645        -0.38245
C          8.71680         3.76844        -0.10141
C          9.93920         3.05172         0.06509
C         -8.77361         5.24526         0.45955
C         -7.53093         5.97697         0.88892
C         -6.31859         5.18668         0.33892
C         -4.98399         5.91545         0.41659
C         -3.79044         5.15186        -0.05652
C         -2.60032         5.78947        -0.33519
C         -1.34305         5.09712        -0.59723
C         -0.13458         5.76170        -0.81190
C          1.11732         5.02132        -0.80401
C          2.38374         5.82307        -0.53650
C          3.68166         5.06106        -0.88043
C          4.88868         5.81826        -0.33178
C          6.21078         5.14840        -0.36931
C          7.47909         5.98277        -0.46037
C          8.67366         5.18691         0.01697
C         -7.54903         7.35860         0.30045
C         -6.31785         8.19709         0.59913
C         -5.01602         7.41411         0.35926
C         -3.91366         8.04383        -0.44267
C         -2.66501         7.24688        -0.62506
C         -1.39638         8.01572        -0.83832
C         -0.11634         7.25111        -1.00405
C          1.18625         8.03595        -1.06973
C          2.45537         7.23130        -1.11880
C          3.77832         7.88540        -0.95124
C          4.87697         7.29020        -0.41854
C          6.06223         8.00399         0.08097
C          7.26419         7.34840         0.16145
C         -6.27640         9.58310         0.00512
C         -5.15143        10.22496        -0.33804
C         -3.81585         9.56775        -0.59796
C         -2.60463        10.07141         0.22971
C         -1.33063         9.41752        -0.32118
C         -0.16194        10.08236        -0.29433
C          1.17796         9.57450        -0.79132
C          2.24234         9.98311         0.25087
C          3.55958         9.84738        -0.03470
C          4.75439        10.07644         0.77609
C          5.88264         9.31352         0.72036
C        -11.13858        -0.55867        -0.33108
C         -9.93420        -1.37491        -0.40988
C         -8.68673        -0.70238        -0.89890
C         -7.45087        -1.32468        -0.25149
C         -6.32202        -0.65569         0.48306
C         -5.01072        -1.39636         0.69007
C         -3.73740        -0.61929         0.43692
C         -2.55830        -1.28422         0.29040
C         -1.28610        -0.59126         0.61921
C         -0.01473        -1.34278         0.75678
C          1.25683        -0.53667         0.77162
C          2.53681        -1.28471         1.02884
C          3.82101        -0.50714         0.82484
C          5.11876        -1.27450         0.83249
C          6.40069        -0.52128         0.58572
C          7.70193        -1.32175         0.51448
C          8.84281        -0.61578        -0.21854
C         10.13961        -1.34486        -0.11459
C         11.32812        -0.48797         0.12607
C         -9.87386        -2.73918        -0.25816
C         -8.65070        -3.50640        -0.49027
C         -7.34985        -2.74529        -0.78148
C         -6.12468        -3.45681        -0.24990
C         -5.00053        -2.79691         0.14553
C         -3.70415        -3.50217         0.33965
C         -2.46460        -2.74485        -0.10742
C         -1.17564        -3.48476         0.26031
C          0.02464        -2.81130         0.52218
C          1.26009        -3.50781         0.61213
C          2.55669        -2.82956         1.09215
C          3.76175        -3.38640         0.29113
C          5.08955        -2.76114         0.73541
C          6.38596        -3.49952         0.50488
C          7.56484        -2.74435        -0.09329
C          8.89198        -3.48303         0.11974
C         10.05292        -2.79387         0.24533
C         -8.64108        -4.86949        -0.54113
C         -7.36692        -5.60955        -0.91286
C         -6.19577        -4.93057        -0.22822
C         -4.93507        -5.71779         0.00819
C         -3.64764        -4.98569         0.20036
C         -2.36319        -5.61941        -0.13688
C         -1.16156        -4.91598         0.11732
C          0.08317        -5.63724         0.17489
C          1.29515        -4.90307         0.39005
C          2.57978        -5.58688         0.27112
C          3.78427        -4.90513         0.24258
C          5.02899        -5.63121         0.10111
C          6.34680        -4.96475         0.28845
C          7.58215        -5.65267        -0.29470
C          8.88845        -5.00686         0.22755
C         -7.34949        -7.10875        -0.70268
C         -6.15791        -7.81246        -0.56200
C         -4.92077        -7.11486        -0.40215
C         -3.65785        -7.80995        -0.58369
C         -2.32738        -7.03564        -0.46566
C         -1.09824        -7.78573        -0.16684
C          0.06893        -7.08052         0.09290
C          1.35859        -7.82814         0.37027
C          2.53811        -7.01071        -0.12209
C          3.82225        -7.71259        -0.47788
C          5.06002        -6.98772        -0.16723
C          6.29306        -7.75360         0.04185
C          7.50279        -7.12722         0.03435
C         -6.07568        -9.26815        -0.75886
C         -4.91344        -9.94807        -0.65004
C         -3.66727        -9.25850        -0.13662
C         -2.33690        -9.92026        -0.36249
C         -1.15960        -9.23982        -0.24176
C          0.11298       -10.04600        -0.08687
C          1.39193        -9.24766        -0.15760
C          2.53215        -9.87037        -0.50742
C          3.88385        -9.22084        -0.68006
C          4.99489        -9.84728         0.12733
C          6.13776        -9.17515         0.36141
O          4.86271         1.87630        -1.67554
O          1.50013        -7.92958         1.81788
H          1.42375        -7.02879         2.19917
O          9.43052        -1.22339        -1.41842
O         -7.42424        -1.28930         1.19403
O          0.12410       -11.15265        -1.03566
O         -3.63010         2.99722        -1.35359
O         -0.82650        -0.99266         1.94942
O         -2.53043        -2.77886        -1.56705
H         -1.83217        -2.19387        -1.93082
O         -5.91359        -5.47971         1.09346
O         -3.66786         7.40765        -1.72848
O          8.14693        -1.47010         1.88100
H          7.35987        -1.67467         2.43531
O         -1.47623         1.73817         1.48463
O          3.51798         3.64880         1.11847
H          4.32872         4.06396         1.50959
O          3.88636         0.63745         1.73409
O          5.50897         5.27523         0.90324
O          4.25354        -9.42687        -2.07323
H          3.62312        -8.89438        -2.60733
O         -0.85854         3.13991        -1.98634
O         -4.87090        -1.59930         2.21104
O          7.58558        -5.49996        -1.73285
H          6.88585        -6.07405        -2.10845
O         -6.81678         3.51582         2.19189
O         -0.89181         7.73098        -2.17392
O         -0.16297         0.61930        -1.77268
H          0.31782         1.13848        -2.45623
O          3.84855         9.24301        -1.28911
O          3.82634         4.97531        -2.30085
H          3.30990         4.16515        -2.60046
O          1.44868        10.24612        -2.02891
H          1.90682         9.60201        -2.61719
O          1.81510        -0.66607         2.12798
O          6.51063         0.62248         1.50201
O          2.70648        -3.21044         2.46618
H          2.33386        -2.48532         3.01729
O          2.95736        -7.13983        -1.52391
O          7.81144         6.18227        -1.87024
H          7.49769         5.38913        -2.37256
O         -4.61942         6.72421         1.59360
O         -9.21349         0.24026         2.00354
O          0.21897       -10.56641        -2.36188
H         -0.69884       -10.23828        -2.53037
O          5.14800        -2.11716         2.04085
O         -6.58747         5.04754        -1.08002
H         -6.67059         5.94405        -1.47293
O         10.48646         1.95205        -1.88827
H          9.65055         1.87341        -2.41054
O         -7.15719        -5.41291        -2.36101
H         -7.88635        -5.86460        -2.83685
O          2.52021         2.66913        -2.23222
O          6.63241        -4.40219         1.62489
O         -3.55853        -4.30666         1.53744
O          1.79790         7.62414        -2.34750
O         -8.70647         0.06215        -1.84019
O         -5.70993        -2.69166         2.61800
H         -5.10455        -3.47944         2.57210
O          3.54606        -2.92452        -1.07249
H          4.12144        -3.43433        -1.68185
O         -3.50281         9.90425        -1.96678
H         -3.37676         9.05289        -2.45613
O         -2.91508        -7.44616        -1.77921
O         -7.09841         1.39600        -0.57779
O          2.37396         6.07671         0.89689
H          2.55168         5.21122         1.34667
O          7.21966        -2.63566        -1.48699
H          8.01106        -2.27707        -1.96029
O         -3.81135        -9.21043         1.32315
H         -4.67636        -8.79245         1.52694
O         -3.67358         0.77330         2.35912
H         -2.72323         0.71608         2.61637
O          8.05306         1.06707        -1.75824
O         -2.51286        11.48531         0.14144
H         -2.54532        11.70949        -0.81350
O         -7.19322        -2.65598        -2.21348
H         -7.12366        -3.57889        -2.56575
O         -9.45101         4.05325         2.22296
H         -8.66802         4.34898         2.75623
O          6.45738         3.84673        -2.34682
H          6.07440         3.03191        -2.75105
O         -6.43522         8.44382         2.03425
H         -6.01062         7.66609         2.47801
O          9.13504        -5.40972         1.57589
H          8.38637        -5.07318         2.12135
O         -7.46775         6.00481         2.36450
H         -8.05007         6.73605         2.66436
H         12.24542        -0.98284         0.48136
H         12.19917         1.42797         0.29923
H         10.85045         3.63495         0.27454
H          9.61821         5.72493         0.19867
H          8.13359         7.85691         0.60640
H          6.74296         9.65102         1.32221
H          4.75215        10.94952         1.44817
H          1.91829        10.42539         1.20430
H         -0.17051        11.11766         0.08388
H         -2.73056         9.79848         1.31185
H         -5.21217        11.28164        -0.64058
H         -7.21858        10.15030         0.06477
H         -8.51498         7.89249         0.37090
H         -9.70026         5.81973         0.28813
H        -10.76300         3.54882        -0.40295
H        -12.14106         1.30485        -0.29182
H        -12.09884        -1.07602        -0.49338
H        -10.78051        -3.30377         0.01546
H         -9.56714        -5.44145        -0.36998
H         -8.27102        -7.66771        -0.93129
H         -6.99670        -9.79488        -1.05137
H         -4.88994       -11.03565        -0.81741
H         -2.30612       -11.01975        -0.42471
H          0.07029       -10.54951         0.91723
H          2.46324       -10.92061        -0.83464
H          4.90999       -10.91002         0.39741
H          6.98869        -9.67697         0.84641
H          8.42860        -7.69473         0.20844
H          9.73315        -5.40696        -0.38947
H         10.99231        -3.33628         0.43685
