         762
 CSIRO Nanostructure Databank - Neutral Graphene Oxide Data Set
C         23.07061        24.48106        -1.55926
C         21.83726        25.19232        -1.74168
C         22.76816        27.17856        -0.63206
C         21.68246        26.48339        -1.34001
C         22.77165        28.66944        -0.58369
C         21.79625        29.39720         0.02612
C         22.69224        31.53674        -0.78401
C         21.77115        30.83630        -0.06397
C         22.47704        32.99564        -1.17853
C         21.38182        33.76363        -0.44710
C         22.49003        35.95531        -0.60710
C         21.34765        35.12439        -0.32061
C         22.55835        37.34977        -0.77473
C         21.40950        38.16736        -0.70066
C         22.72062        40.22358        -0.89168
C         21.49264        39.55618        -0.85331
C         22.75146        41.71087        -0.92735
C         21.97947        42.40009        -1.98160
C         23.47340        44.32698        -1.84508
C         22.36135        43.61626        -2.44363
C         23.60842        46.69872        -1.70691
C         22.76331        47.65301        -2.29432
C         22.94056        49.01497        -0.31603
C         22.43688        48.81772        -1.60201
C         25.61725        23.02140        -0.94008
C         25.44254        24.40992        -0.75434
C         24.19269        25.09395        -1.05501
C         25.35875        27.28242        -0.48239
C         24.10402        26.48436        -0.55930
C         25.31562        28.65847        -1.02311
C         23.92749        29.33893        -1.20173
C         25.18591        31.57065        -1.60999
C         23.85998        30.82261        -1.38336
C         25.09754        33.00376        -1.18619
C         23.79939        33.75562        -1.14312
C         24.93221        36.00195        -0.37523
C         23.75636        35.21909        -0.81875
C         25.09421        37.29053        -0.73252
C         23.87118        38.02509        -1.24336
C         25.17165        40.13754        -0.59188
C         23.96054        39.50380        -0.85672
C         25.19643        41.55127        -0.09826
C         23.97327        42.39784        -0.39337
C         25.27281        44.51988        -0.06593
C         24.22797        43.79327        -0.84348
C         25.24573        45.99832         0.17610
C         24.22412        46.90916        -0.45302
C         25.49296        48.65311         1.86222
C         23.82991        48.07842         0.22828
C         25.64784        49.54006         2.90769
C         27.68227        23.01731         0.33246
C         26.75499        22.34904        -0.48413
C         27.40820        24.36860         0.59707
C         26.45252        25.14642        -0.06837
C         27.79828        27.36188        -0.16946
C         26.54530        26.62754        -0.15017
C         27.76834        28.88252        -0.36351
C         26.52667        29.48915        -1.03180
C         27.81934        31.49874        -1.57220
C         26.51787        30.81978        -1.45577
C         27.95366        32.79749        -2.08222
C         26.19357        33.78883        -1.57249
C         27.82731        35.70158        -1.28231
C         26.72967        34.91728        -0.92826
C         27.76177        37.11762        -0.76141
C         26.44705        37.91216        -0.86743
C         27.77620        40.12441        -0.59226
C         26.46946        39.42929        -0.80281
C         27.79083        41.56324        -0.28536
C         26.52209        42.27094         0.05952
C         27.73872        44.46240         0.00460
C         26.55802        43.76723         0.03457
C         27.77435        45.92060        -0.02007
C         26.58697        46.62188         0.59281
C         27.95281        48.78484         1.43127
C         26.69331        47.96559         1.29655
C         28.06495        49.71759         2.53358
C         26.92575        50.02357         3.27947
C         30.14014        20.55095         1.89981
C         29.02308        21.07725         1.36573
C         30.28796        23.21226         0.80488
C         29.01431        22.40493         0.70049
C         30.33597        24.68076         0.56792
C         29.23414        25.49791         0.71071
C         30.30866        27.32528        -0.41664
C         29.07168        26.76757         0.06277
C         30.25166        28.63363        -1.06482
C         29.03953        29.44343        -0.96597
C         30.32654        31.47854        -1.57923
C         29.07541        30.78652        -1.35133
C         30.34160        32.90940        -1.96518
C         29.08334        33.65806        -1.95814
C         30.28067        35.82564        -1.69344
C         29.04254        35.06834        -1.76035
C         30.22372        37.30540        -1.50458
C         29.01384        37.92990        -0.84188
C         30.25166        40.10968        -0.58451
C         28.94637        39.42194        -0.76472
C         30.20957        41.59780        -0.74077
C         28.96439        42.27280        -0.30383
C         30.28483        44.50951        -0.33777
C         29.02530        43.72951        -0.03067
C         30.20421        45.96385        -0.61181
C         28.92136        46.58030        -0.39897
C         30.34037        49.18089         0.84830
C         29.02745        48.65695         0.57498
C         30.48690        50.04849         1.98804
C         29.34124        50.37807         2.77335
C         30.70638        51.98087         4.00787
C         29.48765        51.35871         3.77814
C         32.80338        18.99888         2.17495
C         32.75304        20.46628         2.15112
C         31.43878        21.26334         1.97200
C         32.72606        23.28823         1.16758
C         31.52629        22.61947         1.38161
C         32.75528        24.55944         0.46686
C         31.57637        25.26953         0.17507
C         32.78518        27.35420        -0.47715
C         31.54240        26.63941        -0.30293
C         32.80455        28.71427        -0.74905
C         31.61119        29.38138        -1.26158
C         32.79058        31.57105        -1.25213
C         31.57519        30.84872        -1.36481
C         32.77479        33.04200        -1.28936
C         31.59428        33.72938        -1.85200
C         32.79028        35.91990        -1.75975
C         31.52846        35.20473        -1.74390
C         32.81033        37.34215        -1.75298
C         31.52069        38.06047        -1.51365
C         32.80768        40.20036        -1.00652
C         31.54698        39.40303        -0.83323
C         32.75756        41.66358        -1.10444
C         31.45833        42.36577        -1.02291
C         32.61031        44.55711        -1.15355
C         31.49331        43.83244        -0.83465
C         32.63503        46.01358        -1.13379
C         31.36419        46.67155        -0.91175
C         32.78022        49.27037         0.44102
C         31.46904        48.82937         0.08632
C         32.93123        50.14671         1.56965
C         31.76467        50.59838         2.29801
C         33.16265        52.18641         3.62420
C         31.86803        51.60611         3.30302
C         33.34693        53.27832         4.44961
C         35.20921        18.90027         1.60430
C         33.96732        18.29927         1.98566
C         35.17791        20.34112         1.26875
C         34.04507        21.16594         1.82809
C         35.28422        23.21499         0.93510
C         34.02630        22.61522         1.45003
C         35.25509        24.70359         0.93233
C         34.04770        25.18526         0.15377
C         35.30744        27.38817        -0.03875
C         34.06710        26.64831        -0.26215
C         35.29948        28.84626        -0.10736
C         33.99656        29.53345        -0.46624
C         35.25765        31.59503        -1.03567
C         34.04180        30.93106        -0.96180
C         35.28502        32.99315        -1.50458
C         34.05991        33.81427        -1.36041
C         35.26911        35.92805        -1.91565
C         34.04616        35.23734        -1.77127
C         35.26950        37.36148        -2.11682
C         34.00748        38.04525        -1.95485
C         34.90619        40.43304        -2.33620
C         33.98878        39.51276        -1.68928
C         35.08479        41.73116        -1.90941
C         33.90384        42.37600        -1.38199
C         35.10483        44.59058        -1.71150
C         33.82464        43.83813        -1.57775
C         35.11807        46.04072        -1.45923
C         33.84024        46.70637        -1.34034
C         35.22810        49.33907         0.07932
C         33.95151        48.87165        -0.27419
C         35.36530        50.18349         1.21995
C         34.22409        50.56878         1.95960
C         35.71357        52.04363         3.48611
C         34.35057        51.47301         3.13001
C         35.79127        53.34492         4.16177
C         34.62941        53.87856         4.66196
C         37.74418        16.17238         2.04664
C         36.52408        16.84371         1.89968
C         37.64266        18.80598         0.88009
C         36.42141        18.18416         1.46924
C         37.70747        20.29306         0.44020
C         36.40572        21.03343         0.74841
C         37.74232        23.18363         0.75380
C         36.46718        22.51636         0.82395
C         37.75705        24.61599         0.63207
C         36.54579        25.32554         0.49164
C         37.76076        27.44647         0.23708
C         36.52996        26.71335         0.19034
C         37.75467        28.85690        -0.10721
C         36.58574        29.52995        -0.34930
C         37.79088        31.70290        -0.81395
C         36.57669        30.84591        -1.09832
C         37.79287        33.07587        -1.11913
C         36.57154        33.75117        -1.60047
C         37.73523        35.91262        -1.65190
C         36.53456        35.23162        -1.70390
C         37.82934        37.28895        -2.23537
C         36.52863        38.03076        -2.26745
C         37.78046        40.20937        -2.23223
C         36.70397        39.39129        -2.63383
C         37.71542        41.70088        -2.23256
C         36.37094        42.44875        -2.13197
C         37.65934        44.57520        -1.29331
C         36.38267        43.83703        -1.54002
C         37.66035        46.08343        -1.22742
C         36.34853        46.69516        -1.42465
C         37.71939        49.08250        -0.12287
C         36.45053        48.85912        -0.56327
C         37.91925        50.44102         0.54999
C         36.64486        50.98551         1.34208
C         38.24428        52.10483         3.05235
C         36.91233        51.49958         2.75758
C         38.34679        53.38946         3.75010
C         37.06917        54.16269         4.04842
C         38.51236        55.78610         5.22367
C         37.31854        55.14665         5.16050
C         40.27628        14.81215         2.60561
C         40.24088        16.11944         2.06606
C         38.97514        16.78235         1.80381
C         40.20623        18.90078         1.10509
C         38.96341        18.10074         1.13980
C         40.20278        20.29990         0.97914
C         38.96947        21.03546         0.87583
C         40.22148        23.18472         0.98320
C         38.97072        22.44874         0.85338
C         40.23142        24.64292         0.94550
C         38.98662        25.34806         0.68301
C         40.12280        27.56547         0.96942
C         38.95250        26.75582         0.55165
C         40.12859        29.02909         0.66511
C         39.08839        29.52386        -0.34709
C         40.17801        31.75666        -0.32876
C         39.01019        31.03881        -0.44051
C         40.18172        33.20870        -0.52798
C         38.96038        33.86632        -0.99617
C         40.19337        35.98174        -1.39081
C         38.97884        35.24291        -1.34524
C         40.19942        37.40374        -1.50705
C         38.99660        38.11928        -1.75347
C         40.18443        40.28833        -1.58868
C         38.97184        39.53216        -1.79395
C         40.18058        41.71583        -1.62114
C         38.93671        42.44962        -1.77683
C         40.13893        44.53305        -1.12300
C         38.91217        43.81141        -1.50615
C         40.11803        46.02001        -0.82843
C         38.82415        46.79933        -0.94700
C         40.24997        48.86282        -0.27854
C         38.90011        48.29325        -0.65066
C         40.36604        50.06336         0.61411
C         39.24376        50.59787         1.23929
C         40.71265        52.36064         2.35001
C         39.42057        51.58443         2.29954
C         40.71432        53.69547         2.97724
C         39.55047        54.13872         3.71431
C         40.76823        56.25730         4.19786
C         39.61515        55.42096         4.35564
C         40.82189        57.55796         4.77527
C         42.68724        14.84228         2.60997
C         41.48485        14.17355         2.84943
C         42.69220        16.13859         2.07452
C         41.46983        16.77395         1.77095
C         42.75595        18.91871         1.12470
C         41.45717        18.13317         1.16471
C         42.69729        20.38454         1.12173
C         41.45963        21.04349         1.04831
C         42.68927        23.19539         1.37887
C         41.42276        22.48000         1.10694
C         42.70099        24.71247         1.39535
C         41.41157        25.36855         1.10669
C         42.73002        27.57449         1.21403
C         41.40443        26.83889         1.26123
C         42.74057        29.06518         0.99269
C         41.42498        29.78842         0.76448
C         42.72118        31.67568        -0.40897
C         41.44397        31.15330         0.16664
C         42.72567        33.08502        -0.94288
C         41.48135        33.90111        -0.78894
C         42.73395        35.95137        -1.16185
C         41.47813        35.20803        -1.54375
C         42.66809        37.40475        -1.03385
C         41.41739        38.14656        -1.35819
C         42.67643        40.28534        -1.30757
C         41.39786        39.54322        -1.41460
C         42.69867        41.77638        -1.45000
C         41.40257        42.48173        -1.54273
C         42.63398        44.67064        -1.67988
C         41.41103        43.86634        -1.46154
C         42.64607        46.09205        -1.22130
C         41.44163        46.71100        -0.87496
C         42.73853        48.83680        -0.45422
C         41.50497        48.01729        -0.14380
C         42.78009        50.16886         0.00883
C         41.63956        50.69385         0.72572
C         42.86198        52.76464         1.25230
C         41.74685        51.96821         1.38136
C         42.87582        54.12099         1.83309
C         41.81502        54.52092         2.79397
C         43.05145        56.63831         3.29341
C         41.88769        55.81379         3.41637
C         43.05643        57.89200         3.89654
C         41.93366        58.35929         4.61002
C         45.19030        16.10901         1.49191
C         44.02277        16.86432         2.07928
C         45.19732        18.95020         1.41575
C         44.00748        18.27069         1.54033
C         45.19675        20.38594         1.19637
C         43.95635        21.09268         1.15548
C         45.18553        23.22522         1.05839
C         43.97109        22.50312         1.16927
C         45.20086        24.67903         1.01366
C         43.98616        25.42091         1.11671
C         45.20948        27.51947         0.69752
C         43.98549        26.81872         0.96029
C         45.25409        28.92514         0.44488
C         44.02466        29.72768         0.57282
C         45.19100        31.69065        -0.42326
C         44.00839        31.04863        -0.08895
C         45.17444        33.09518        -0.79996
C         44.00360        33.80636        -0.97350
C         45.18812        35.98759        -1.16276
C         43.94233        35.27066        -1.04641
C         45.22940        37.36082        -1.35594
C         44.00157        38.13641        -1.12156
C         45.17162        40.23180        -1.98785
C         43.91320        39.52132        -1.65607
C         45.14856        41.72576        -2.09997
C         43.93374        42.47041        -1.81933
C         45.24153        44.64021        -1.58730
C         43.96808        43.93669        -1.90844
C         45.17589        46.17857        -1.73306
C         43.88871        46.81543        -1.23051
C         45.07744        49.05280        -1.18869
C         43.90514        48.22671        -0.97352
C         45.09973        50.41196        -0.79016
C         43.97384        50.93942        -0.12541
C         45.32576        52.99689         0.63627
C         44.06889        52.19632         0.64434
C         45.32886        54.40688         1.07510
C         44.10876        54.95891         1.71830
C         45.34447        57.03776         2.13069
C         44.34564        56.06167         2.72899
C         46.35177        16.75953         1.27116
C         47.66349        18.88374         1.34989
C         46.45813        18.21189         1.41373
C         47.71708        20.39474         1.45819
C         46.41327        21.09395         1.11607
C         47.65089        23.20920         0.61382
C         46.39996        22.49310         0.95352
C         47.71085        24.66838         0.81840
C         46.44495        25.38377         0.90391
C         47.68281        27.55375         0.81267
C         46.43016        26.78855         0.76221
C         47.71111        28.93323         0.30290
C         46.46731        29.61421         0.15446
C         47.69467        31.64398        -0.49382
C         46.46898        31.00003        -0.23435
C         47.69475        33.01486        -1.15540
C         46.48071        33.83804        -0.66662
C         47.72591        35.94353        -1.45153
C         46.41902        35.20201        -1.31940
C         47.69819        37.41833        -1.43558
C         46.47473        38.06594        -1.53623
C         47.71569        40.30524        -1.50377
C         46.42752        39.54949        -1.52974
C         47.74549        41.74531        -1.78127
C         46.47808        42.47586        -1.98625
C         47.66329        44.35071        -1.01757
C         46.39672        43.86953        -1.49413
C         47.66422        46.51232        -1.00505
C         46.38643        47.04001        -1.36422
C         47.58897        49.17567        -1.76570
C         46.33026        48.42107        -1.50251
C         47.62599        50.71457        -1.63100
C         46.30547        51.27732        -1.04566
C         47.67476        53.29613        -0.10261
C         46.38791        52.59614        -0.33315
C         47.67498        54.59666         0.38324
C         46.43079        55.20159         0.88937
C         46.33693        56.59969         1.32492
C         50.10328        18.79822         1.08423
C         48.92558        18.17654         1.32821
C         50.14796        20.22214         0.70808
C         48.92046        20.98982         0.77528
C         50.22604        23.17482         0.64550
C         48.95273        22.42966         0.49751
C         50.20692        24.59249         0.67746
C         48.94292        25.30981         0.76073
C         50.23272        27.48048         0.52806
C         49.00125        26.77742         0.88394
C         50.20357        28.86668         0.20106
C         48.93493        29.58087         0.03024
C         50.17286        31.64350        -0.72512
C         48.91698        30.94660        -0.37411
C         50.20694        33.13035        -0.69226
C         48.96208        33.83107        -0.90192
C         50.10732        36.02001        -0.68490
C         48.93762        35.20711        -1.03536
C         50.14667        37.45693        -1.05046
C         48.94922        38.15147        -1.31924
C         50.19322        40.30136        -1.38038
C         48.97757        39.56645        -1.45007
C         50.19237        41.73618        -1.41210
C         48.94289        42.42995        -1.61148
C         50.14166        44.67816        -1.42996
C         48.89912        43.85328        -1.37202
C         50.13606        46.19645        -1.42129
C         48.89403        47.01957        -1.32695
C         50.24890        49.12297        -1.66977
C         48.91468        48.41361        -1.79198
C         50.20153        50.58493        -1.33570
C         48.86445        51.07286        -0.71328
C         50.21361        53.30713        -0.06990
C         48.91941        52.52483        -0.21425
C         50.09728        54.76780         0.04039
C         48.91235        55.34603         0.36750
C         52.65810        20.35669         1.38547
C         51.48009        20.99209         0.74448
C         52.67067        23.18267         0.89352
C         51.45098        22.48220         0.76914
C         52.66482        24.59460         0.91485
C         51.44405        25.30322         0.77345
C         52.66216        27.47568         0.69229
C         51.46644        26.75834         0.64357
C         52.63997        28.93034         0.58401
C         51.41777        29.55974         0.07693
C         52.74950        31.67536        -0.36198
C         51.48634        30.90907        -0.47045
C         52.70427        33.12368        -0.56256
C         51.41518        33.80728        -0.57306
C         52.67383        36.05710        -0.52538
C         51.40182        35.27442        -0.41367
C         52.60425        37.45790        -0.95644
C         51.39328        38.15739        -1.05736
C         52.62542        40.33404        -1.08016
C         51.41529        39.59656        -1.20800
C         52.60969        41.74900        -1.08693
C         51.39943        42.46932        -1.22455
C         52.60101        44.64100        -1.06813
C         51.42073        43.93489        -1.21873
C         52.69304        46.12869        -1.37524
C         51.41712        46.93580        -1.24710
C         52.73769        49.00136        -1.08179
C         51.48116        48.31372        -1.36536
C         52.78701        50.50063        -1.11735
C         51.50547        51.31035        -1.09553
C         52.75063        53.22486         0.07945
C         51.50898        52.70789        -0.53533
C         53.80744        21.03622         1.49507
C         55.21559        23.10547         1.24301
C         53.95921        22.37058         0.80121
C         55.21858        24.59233         1.29511
C         53.91719        25.34394         1.20972
C         55.21564        27.56850         0.83759
C         53.93795        26.84898         1.07342
C         55.24063        28.93966         0.58290
C         53.95048        29.69230         0.56735
C         55.19243        31.80843         0.03678
C         53.92407        31.04438        -0.02877
C         55.17186        33.10023        -0.71636
C         53.88822        33.82981        -0.62644
C         55.21202        35.95548        -1.07255
C         53.96615        35.29727        -0.62134
C         55.17054        37.43548        -1.21683
C         53.86108        38.17528        -1.18578
C         55.07550        40.27387        -0.66927
C         53.87714        39.62654        -0.96034
C         55.10093        41.72274        -0.61161
C         53.92696        42.47152        -1.20844
C         55.00105        44.62610        -0.53751
C         53.84800        43.93815        -0.85549
C         55.04424        46.07665        -0.46775
C         53.88838        46.82739        -0.76803
C         55.09155        48.93257        -0.18093
C         53.87232        48.25770        -0.71878
C         55.19718        50.41301        -0.17526
C         54.03348        51.22835        -0.66058
C         53.91574        52.56549        -0.03115
C         57.67506        23.08464         0.96808
C         56.52905        22.40932         1.12923
C         57.67077        24.52668         0.50688
C         56.53628        25.36863         1.16422
C         57.75257        27.46072         0.56216
C         56.41394        26.73756         0.42746
C         57.72757        28.93816         0.67512
C         56.47405        29.65904         0.51278
C         57.81192        31.96070         0.28581
C         56.48760        31.14490         0.43944
C         57.69974        33.06330        -0.76691
C         56.43544        33.79078        -1.10523
C         57.61017        36.11680        -1.42409
C         56.39498        35.29528        -1.26146
C         57.63270        37.48307        -0.91131
C         56.36843        38.17663        -0.79113
C         57.47977        40.18070         0.13524
C         56.28950        39.51838        -0.45152
C         57.46970        41.70094         0.20108
C         56.23396        42.39635        -0.25813
C         57.53634        44.57773        -0.09394
C         56.20915        43.86658        -0.14387
C         57.52957        46.01727        -0.39317
C         56.32470        46.71351        -0.33564
C         57.46861        48.83927        -1.04925
C         56.43328        48.19603        -0.10201
C         57.61936        50.29714        -0.64598
C         56.56376        51.01012        -0.22785
C         60.17785        24.64828         0.78083
C         58.97760        25.29176         0.64953
C         60.23568        27.43262         0.26588
C         58.93347        26.75098         0.54774
C         60.28650        28.92450         0.08343
C         59.07628        29.73612         0.44419
C         60.23591        31.72294        -0.45886
C         59.04131        31.11357        -0.00824
C         60.17310        33.02020        -1.04878
C         58.84262        33.42922        -1.41294
C         60.12062        36.17955        -1.74672
C         58.78162        35.59122        -1.89854
C         60.12233        37.60621        -1.10835
C         58.82112        38.16477        -0.69566
C         60.04995        40.15118         0.36747
C         58.75804        39.32548         0.28525
C         60.02829        41.68896         0.27589
C         58.76001        42.42704         0.10151
C         60.00538        44.49329        -0.46217
C         58.78866        43.79148        -0.18392
C         59.99090        45.91056        -0.75123
C         58.77656        46.67427        -0.69187
C         59.96596        48.65852        -1.44739
C         58.78029        48.05811        -1.03283
C         61.43342        25.35551         0.77829
C         61.48009        26.67955         0.50599
C         61.54838        29.70814         0.04316
C         61.50094        31.02149        -0.26433
C         61.27985        33.90712        -1.31211
C         61.26684        35.24722        -1.63032
C         61.33397        38.19962        -0.49882
C         61.30361        39.39842         0.11354
C         61.25087        42.41620        -0.08349
C         61.22161        43.73140        -0.44654
C         61.18091        46.58535        -1.13305
C         61.16558        47.92488        -1.48025
O         34.43277        29.46758         0.93983
O         60.15255        28.06327        -1.09820
O         54.84300        49.69916         1.06799
O         38.24939        17.98693        -0.15781
O         34.34406        44.23865        -2.90664
O         45.85636        42.23958        -3.28934
O         24.20447        48.31947         1.55463
O         34.28026        25.51587        -1.22637
O         39.73843        49.04728        -1.61669
O         24.73606        45.08388         1.19143
O         33.35723        33.63951        -0.08177
O         24.54908        28.64305        -2.29655
O         50.57374        35.75351         0.69051
O         60.12066        40.94992         1.57513
O         30.63313        38.06897        -2.69228
O         23.21967        26.58838         0.63349
O         43.54830        29.75379         1.99046
O         58.75711        34.32790        -2.48776
O         42.58398        31.95670        -1.85463
O         40.93630        33.96575         0.53907
O         50.17665        45.43897        -2.72491
O         41.36667        30.97821         1.61576
O         42.08940        27.23478         2.48987
O         45.92360        52.52993        -1.71590
O         31.30955        48.06287        -1.08308
O         31.20234        33.18797        -3.14820
O         60.31354        37.38438        -2.55196
O         40.47815        51.24433         3.26583
O         29.92744        22.47092        -0.45588
O         26.78026        46.66281         2.03967
O         51.57865        52.48701        -1.97171
O         51.00833        20.42716        -0.50688
O         55.65450        31.85202         1.43465
O         35.95856        33.12968        -2.81775
O         50.89778        31.02581        -1.83072
O         30.94016        28.69387        -2.35150
O         42.22867        18.24625        -0.09109
O         50.27782        50.13776        -2.72489
O         23.84559        34.77557        -2.23835
O         53.80381        26.19573         2.40030
O         57.22567        40.87892         1.39684
O         36.12261        52.09600         0.63256
O         35.12848        50.94683         4.26370
O         45.12867        52.05223         1.73632
O         36.87817        43.94600        -0.17407
O         43.17369        44.50456        -3.04802
O         53.52708        35.88164         0.67767
O         55.15285        23.78154         2.53828
O         42.68193        23.94800         2.64958
O         40.08433        45.03847         0.28489
O         48.19594        48.71425        -3.02398
O         26.01075        35.33294         0.21184
O         22.77631        42.26897         0.43961
O         31.01935        39.51301         0.52289
O         53.75376        51.06656        -2.07450
O         42.83214        41.08125        -0.09270
O         28.83851        47.96174        -0.62601
O         23.81958        45.54437        -2.46226
O         56.77578        44.30030         1.13987
O         48.38566        27.34677         2.09180
O         26.46386        38.70750        -2.10863
O         33.93829        39.73255        -0.21813
O         25.80678        41.70353         1.22092
O         37.05880        42.32015        -3.39781
O         24.28621        31.24257        -2.70874
O         55.65859        33.02448        -2.11029
O         53.19560        29.60784         1.81403
O         35.34498        20.59187        -0.18197
O         26.84357        33.34208        -2.71889
O         47.62983        45.41963        -0.14014
O         54.54617        37.84034        -2.48749
O         35.67097        39.96332        -3.39559
O         28.20996        25.02801         1.53549
O         30.54166        41.97336        -2.14187
O         49.66049        52.57721         1.07880
O         37.73865        50.84553         3.74211
O         44.39470        39.57601        -3.03955
O         46.87159        40.09568        -0.24093
O         34.34731        22.16584         2.84255
O         29.94631        44.11582         1.05374
O         43.02719        55.17727         0.77069
O         58.56008        29.46713         1.77005
O         48.17276        22.81899        -0.71528
O         28.58222        37.32190         0.42938
O         43.36507        37.93138         0.15693
O         32.06899        21.07988         3.28265
O         33.80300        48.09743        -1.43544
O         36.27630        48.04313        -1.68311
O         39.67105        28.56778         1.95546
O         47.04593        35.34227        -2.63021
O         23.84775        37.96271        -2.68966
H         24.74596        38.23101        -2.99649
O         27.71327        29.38426         1.03035
H         27.87054        30.35237         1.00403
O         58.63991        38.68117         1.58138
H         58.50765        39.40675         2.23455
O         46.67065        34.11145         0.74653
H         46.54647        33.27923         1.25000
O         56.98013        25.68690         2.49328
H         56.50549        25.09115         3.11744
O         54.21836        42.47682        -2.65823
H         53.52022        43.00714        -3.09983
O         45.00512        55.41462         3.85774
H         45.20242        56.09839         4.53122
O         47.91621        20.68533         2.90503
H         47.08254        20.45574         3.36927
O         45.14861        46.33453        -3.19296
H         44.38064        45.80688        -3.53035
O         38.16687        37.02612        -3.66932
H         37.40772        36.54438        -4.06432
O         47.57692        32.73855        -2.56429
H         47.48979        33.60513        -3.03173
O         36.73012        30.45491        -2.51896
H         36.55459        31.27663        -3.04466
O         56.14369        26.58408        -0.99133
H         56.80926        25.96276        -1.37797
O         57.44388        24.39866        -0.93474
H         58.18453        23.87689        -1.30931
O         52.93919        46.13417        -2.83560
H         52.07170        45.91594        -3.25798
O         56.92576        48.77617        -2.38724
H         57.55715        49.19880        -3.00528
O         39.58346        29.06320        -1.63937
H         38.92271        29.32963        -2.31766
O         38.11331        51.36540        -0.55337
H         37.29896        51.95955        -0.53201
O         56.97026        48.33666         1.23118
H         56.31459        48.85735         1.75530
O         44.32286        17.00591         3.51793
H         45.23257        17.36518         3.59484
O         35.00373        25.15566         2.30576
H         35.46976        24.55364         2.92418
O         47.80903        51.30065        -2.90856
H         48.37292        50.68657        -3.43820
O         54.17025        22.10036        -0.61419
H         53.39549        21.59850        -0.94839
O         37.81843        20.30793        -1.00274
H         36.94768        20.02358        -1.36043
O         48.67542        50.25049         0.46746
H         49.04848        50.74234         1.23683
O         41.58106        34.85913        -2.95853
H         41.39733        35.66061        -3.49253
O         36.85475        54.96279         2.82365
H         37.59636        55.60112         2.74842
O         58.07670        32.59430         1.56314
H         57.22689        32.62153         2.06299
O         41.55953        47.68438         1.28403
H         42.23293        46.98449         1.41618
O         22.01610        32.94795        -2.55088
H         22.44094        33.70521        -3.01944
H         23.11201        23.43059        -1.87993
H         21.01359        24.67771        -2.25650
H         20.77052        27.04508        -1.58838
H         20.95881        28.88823         0.52234
H         20.91142        31.35389         0.38317
H         20.44839        33.21660        -0.24543
H         20.41755        35.60022         0.02742
H         20.42807        37.70689        -0.51854
H         20.56761        40.15008        -0.85389
H         21.16550        41.84978        -2.47643
H         21.82471        44.09654        -3.27309
H         22.34410        47.45347        -3.28829
H         22.66149        49.89799         0.27189
H         21.76197        49.55807        -2.05110
H         24.85689        22.45512        -1.49493
H         24.75475        49.92030         3.42004
H         26.90590        21.29139        -0.74069
H         26.97958        50.73145         4.11598
H         30.08766        19.57437         2.40284
H         28.07679        20.51819         1.41584
H         30.76828        52.74851         4.79082
H         28.62768        51.65407         4.39316
H         31.89623        18.45367         2.47016
H         32.47591        53.79545         4.87675
H         33.92785        17.20822         2.11004
H         34.64761        54.84949         5.17849
H         37.70712        15.14928         2.44338
H         35.61728        16.31455         2.22093
H         38.66445        56.57175         5.97760
H         36.50821        55.42291         5.84974
H         39.34302        14.28290         2.83628
H         39.96895        57.93738         5.35324
H         43.63968        14.36082         2.87096
H         41.49447        13.15652         3.26452
H         43.94481        58.53598         3.83122
H         41.95995        59.36190         5.05836
H         45.12180        15.02143         1.34435
H         45.31847        58.09757         2.42527
H         47.22819        16.19959         0.91549
H         47.08980        57.31520         0.96247
H         51.03216        18.21366         1.04016
H         48.92685        17.09314         1.51409
H         50.99160        55.38408        -0.12830
H         48.87012        56.43292         0.52431
H         52.56122        19.34990         1.81660
H         52.69953        54.16740         0.64369
H         54.67190        20.59009         2.00789
H         54.81030        52.96734         0.46725
H         58.62213        22.52434         0.95951
H         56.55195        21.32548         1.32087
H         58.60779        50.77886        -0.69631
H         56.68363        52.07042         0.04436
H         60.21949        23.55626         0.89140
H         59.98121        49.71537        -1.74982
H         62.35664        24.78757         0.95744
H         62.44350        27.20361         0.44642
H         62.51426        29.19463         0.14633
H         62.43430        31.59014        -0.37992
H         62.28368        33.46763        -1.19278
H         62.25195        35.71813        -1.77429
H         62.29292        37.68152        -0.64339
H         62.23298        39.82128         0.52250
H         62.21389        41.89226        -0.01731
H         62.17411        44.22298        -0.68467
H         62.13382        46.04301        -1.18086
H         62.09543        48.42066        -1.79062
