         621
 CSIRO Nanostructure Databank - Neutral Graphene Oxide Data Set
C          5.83102        31.76805        -0.20584
C          5.75642        33.08473         0.06738
C          8.46375        27.67573        -0.75271
C          8.20382        28.74166         0.33008
C          7.04142        29.62575        -0.05947
C          8.23504        31.71382         0.45202
C          7.02451        30.97779         0.08972
C          8.17998        33.09596         0.73131
C          6.84197        33.81299         0.81886
C          8.07365        36.00191         0.81234
C          6.97712        35.25668         0.39961
C          8.18884        37.39502         0.56199
C         10.79543        23.21180        -0.20969
C         10.78307        24.63118        -0.16890
C          9.60690        25.40431        -0.42937
C         10.82028        27.47913        -0.00436
C          9.62874        26.79413        -0.36189
C         10.80178        28.91687         0.19898
C          9.50816        29.54809         0.70326
C         10.66871        31.79733         0.50905
C          9.47846        31.04553         0.44647
C         10.62370        33.18017         0.80118
C          9.35136        33.80372         1.02854
C         10.43665        35.93280         1.49496
C          9.13584        35.21026         1.61604
C         10.42420        37.23125         1.03547
C          9.32437        38.23343         1.16215
C         10.81670        40.29008         0.18315
C          9.62521        39.61261         0.54425
C         10.83014        41.71628         0.06462
C         13.33891        18.82885        -0.36048
C         13.21925        20.28288        -0.55712
C         11.99994        21.04137        -0.26131
C         13.27374        23.14717        -0.10173
C         11.99981        22.43947        -0.19906
C         13.22309        24.56680         0.34188
C         11.99340        25.33780         0.11477
C         13.26959        27.48089         0.27560
C         12.02408        26.74259         0.15787
C         13.25233        28.93814        -0.14582
C         11.96545        29.64485         0.20033
C         13.24108        31.75023         0.83939
C         11.99257        31.16409         0.12787
C         13.25906        33.29635         0.91600
C         11.87885        33.92515         0.96624
C         13.64532        36.34198         0.65958
C         11.69231        35.23261         1.34167
C         13.55479        37.66554         0.16900
C         12.30675        38.31883         0.13893
C         13.34498        40.40577        -0.29758
C         12.13901        39.67827         0.00101
C         13.29172        41.83267        -0.37176
C         12.01980        42.48134        -0.13016
C         13.21749        44.64432        -0.13546
C         12.01720        43.89248        -0.04582
C         13.24372        46.04265         0.10795
C         15.78895        14.54787        -0.48833
C         15.74509        15.98019        -0.53833
C         14.58169        16.71822        -0.39548
C         15.82220        18.89890        -0.53214
C         14.54726        18.16425        -0.45252
C         15.82690        20.34798        -0.46006
C         14.53963        21.07212        -0.60175
C         15.75776        23.24285        -0.23297
C         14.47400        22.49750        -0.23861
C         15.76779        24.69635         0.14796
C         14.48785        25.34325         0.57705
C         15.71347        27.56335         0.65664
C         14.44355        26.82292         0.49832
C         15.72225        28.98188         0.28995
C         14.52159        29.70644         0.18068
C         15.73378        31.86669         0.08598
C         14.51686        31.12211         0.25574
C         15.80616        33.25197         0.21339
C         14.61517        34.04218         0.63941
C         15.77397        36.14938        -0.37843
C         14.68476        35.50324         0.29913
C         15.79977        37.52720        -0.64384
C         14.66172        38.32337        -0.37783
C         15.77394        40.43561        -0.92052
C         14.56222        39.73048        -0.56866
C         15.73869        41.88844        -0.89122
C         14.47346        42.56234        -0.60624
C         15.67000        44.71268        -0.49339
C         14.45201        43.98134        -0.47009
C         15.68919        46.02102        -0.02131
C         14.46180        46.73539         0.22129
C         15.71270        48.84322         0.60857
C         14.50944        48.15168         0.44471
C         15.81162        50.25342         0.62247
C         18.20465        10.21515        -0.43722
C         18.15311        11.62393        -0.33734
C         16.97173        12.37663        -0.50250
C         18.32950        14.46222        -0.65761
C         16.96711        13.80157        -0.49801
C         18.32188        15.98654        -0.67332
C         17.00910        16.72527        -0.72248
C         18.32466        18.85704        -0.63949
C         17.01196        18.18625        -0.53127
C         18.30292        20.37146        -0.52651
C         17.01343        21.06260        -0.31567
C         18.19897        23.19975         0.14240
C         17.03059        22.50163        -0.12787
C         18.23340        24.63054         0.38301
C         17.04346        25.34236         0.47632
C         18.29198        27.49270         0.37948
C         17.03906        26.79603         0.69914
C         18.28124        28.91417         0.14430
C         16.98750        29.61346        -0.04596
C         18.26223        31.81969        -0.31464
C         16.97074        31.13110        -0.29743
C         18.32413        33.21794        -0.43518
C         17.08626        33.97199        -0.07732
C         18.16287        36.00661        -1.28818
C         17.05810        35.42709        -0.44798
C         18.20020        37.49232        -1.56025
C         16.94305        38.24315        -1.25028
C         18.17230        40.39522        -1.59952
C         16.94267        39.72083        -1.16208
C         18.12972        41.92464        -1.55177
C         16.90714        42.60005        -1.07934
C         18.22492        44.68750        -0.56149
C         16.92095        44.10944        -1.08814
C         18.25350        45.96294         0.05993
C         16.96379        46.61130         0.41894
C         18.24995        48.77980         0.87289
C         16.95795        48.07720         0.82032
C         18.29279        50.15339         0.87411
C         17.04866        50.91702         0.75930
C         18.29578        53.04716         0.96631
C         17.09157        52.32483         0.81409
C         18.28069        54.45227         1.07501
C         20.68457         5.93663         0.07195
C         20.65940         7.33152        -0.13035
C         19.43746         8.05861        -0.24422
C         20.67965        10.19228        -0.12894
C         19.39380         9.46233        -0.25647
C         20.66878        11.67362         0.12531
C         19.34286        12.33867         0.20576
C         20.63512        14.54679         0.53338
C         19.36553        13.83389         0.26021
C         20.55472        15.98481         0.49112
C         19.51026        16.71304        -0.16105
C         20.73248        18.83073         0.19366
C         19.55756        18.12647        -0.21023
C         20.83340        20.30568         0.14851
C         19.57155        21.07734        -0.15485
C         20.71753        23.15959         0.75589
C         19.44043        22.44655         0.41853
C         20.74602        24.62498         0.58519
C         19.50188        25.33023         0.50154
C         20.75678        27.47770         0.24061
C         19.48023        26.74875         0.38132
C         20.68262        28.83120        -0.38427
C         19.45716        29.59913        -0.09963
C         20.79115        31.72935        -0.68422
C         19.50283        31.05242        -0.26208
C         20.67778        33.06067        -1.38081
C         19.50587        33.86776        -0.84326
C         20.67961        35.97790        -1.77904
C         19.42655        35.23784        -1.39565
C         20.70077        37.47686        -1.69728
C         19.51511        38.19778        -1.61773
C         20.66474        40.36670        -1.57861
C         19.48621        39.66515        -1.58246
C         20.70746        41.85771        -1.49812
C         19.42596        42.67803        -1.47871
C         20.67911        44.65208        -0.58900
C         19.43644        44.02229        -0.84427
C         20.70441        45.99199        -0.04258
C         19.46691        46.61394         0.33408
C         20.75996        48.68729         1.14159
C         19.44812        47.89907         1.17311
C         20.74620        50.16263         1.09117
C         19.56157        50.87585         1.01865
C         20.74291        53.05209         1.16281
C         19.55795        52.32922         1.05085
C         20.74045        54.50045         1.16500
C         19.46764        55.21080         1.19869
C         20.64418        57.38251         1.35291
C         19.45219        56.61926         1.24263
C         20.67208        58.77730         1.34023
C         23.12970         3.24210         1.08154
C         21.90240         3.89512         0.81069
C         23.18263         5.83990         0.04602
C         21.87906         5.20336         0.31847
C         23.19216         7.35564        -0.07717
C         21.90588         8.07920        -0.00322
C         23.12840        10.09446         0.76059
C         21.90252         9.43526         0.16197
C         23.10789        11.62449         0.84345
C         21.85547        12.38282         0.63148
C         23.12500        14.44597         0.97521
C         21.83176        13.78760         0.79904
C         23.27026        15.69004         1.52733
C         21.51032        16.78727         1.15705
C         23.01584        18.73467         1.35169
C         21.78069        18.13175         0.84539
C         23.11551        20.23060         1.34013
C         21.96323        20.99996         0.82584
C         23.21368        23.14366         0.70964
C         21.99420        22.40205         0.77103
C         23.23300        24.53318         0.44349
C         21.98952        25.25115         0.42058
C         23.24155        27.29558        -0.42901
C         22.03325        26.71356         0.22622
C         23.22688        28.72912        -0.90141
C         21.93719        29.49365        -0.88044
C         23.22374        31.63225        -1.07494
C         22.01700        30.95571        -0.94304
C         23.21219        33.09425        -1.23276
C         22.01417        33.78957        -1.37239
C         23.26184        35.97746        -1.84003
C         21.97381        35.21251        -1.78512
C         23.20065        37.46074        -1.72589
C         21.99598        38.14922        -1.72969
C         23.14787        40.30737        -1.16893
C         21.98006        39.67277        -1.90485
C         23.15317        41.76167        -0.79346
C         21.91177        42.53307        -0.98127
C         23.19478        44.60941        -0.72085
C         21.90162        43.88994        -0.72024
C         23.16772        46.08516        -0.42550
C         21.93814        46.66988         0.10891
C         23.24793        48.83019         0.44197
C         22.04043        48.00463         0.71940
C         23.29038        50.18171         0.77341
C         22.05077        50.84283         1.27253
C         23.30232        53.12007         1.22049
C         22.02313        52.35413         1.40462
C         23.18587        54.53590         0.68696
C         21.93005        55.21097         1.17199
C         23.23256        57.42704         1.35485
C         21.92005        56.64539         1.47413
C         23.14639        58.86851         1.13051
C         21.89194        59.52686         1.22444
C         23.04253        61.65496         0.85529
C         21.86606        60.94000         1.08854
C         24.35964         3.86167         0.92893
C         25.63915         5.93025         0.38731
C         24.44964         5.20882         0.46041
C         25.67166         7.35872         0.18691
C         24.45590         8.05392         0.12736
C         25.70820        10.26430         0.14297
C         24.39999         9.52514         0.12705
C         25.72333        11.68350         0.51848
C         24.43490        12.35863         0.73868
C         25.69435        14.60029         0.71099
C         24.39053        13.82962         0.53610
C         25.69261        16.01380         1.18365
C         24.41538        16.54999         1.47338
C         25.98413        18.99597         1.54918
C         24.08173        17.94359         1.78377
C         25.76583        20.24731         1.03319
C         24.49900        20.98416         1.22979
C         25.72763        23.10373         0.33474
C         24.44809        22.34771         0.60690
C         25.70274        24.56107         0.29613
C         24.49803        25.25643         0.24850
C         25.69135        27.37623        -0.40641
C         24.52366        26.66478        -0.10289
C         25.68636        28.76353        -0.79485
C         24.49221        29.48311        -0.90777
C         25.69657        31.65690        -0.88163
C         24.47832        30.92118        -1.01562
C         25.67779        33.10470        -0.92590
C         24.48884        33.77614        -1.23155
C         25.82431        35.93503        -1.33509
C         24.54624        35.20610        -1.63007
C         25.80051        37.43304        -1.27184
C         24.51593        38.17035        -1.63354
C         25.52227        40.20135        -0.48085
C         24.47162        39.63898        -1.35583
C         25.67334        41.68303        -0.52661
C         24.43546        42.47880        -0.62577
C         25.68500        44.60906        -0.38797
C         24.47834        43.87577        -0.57169
C         25.68305        46.04496        -0.37606
C         24.45243        46.78307        -0.24673
C         25.61127        48.95291        -0.33904
C         24.42523        48.15697        -0.01790
C         25.66508        50.35027         0.08790
C         24.52694        50.93290         0.61236
C         25.66187        53.20698         0.24100
C         24.56041        52.39711         0.87388
C         25.67896        54.66136         0.50817
C         24.47539        55.32221         0.80758
C         25.65992        57.47698         0.74446
C         24.46330        56.71873         0.96060
C         25.58213        58.89749         0.73225
C         24.34567        59.58938         0.85028
C         24.26802        61.00390         0.72705
C         26.91103         8.09627         0.24313
C         28.16613        10.24182         0.39489
C         26.96544         9.49123         0.23921
C         28.17785        11.64663         0.51515
C         26.91746        12.38355         0.59404
C         28.15416        14.51537         0.79204
C         26.94729        13.81717         0.77225
C         28.15328        15.95296         0.85004
C         26.98800        16.68697         1.14908
C         28.26558        18.79097         0.76766
C         27.10459        18.14887         1.17975
C         28.22602        20.21358         0.28017
C         27.02643        20.98279         0.75941
C         28.28343        23.12609         0.21245
C         27.03199        22.44441         0.60109
C         28.26806        24.49282         0.11380
C         26.99803        25.25603         0.28089
C         28.24871        27.31034        -0.59343
C         26.97552        26.71719        -0.11008
C         28.25338        28.77515        -0.95677
C         26.94095        29.51878        -1.21814
C         28.14473        31.67074        -0.57328
C         26.93488        30.97099        -0.77807
C         28.13014        33.09808        -0.46405
C         26.92588        33.82618        -0.69368
C         28.12548        35.99396        -0.33725
C         26.95484        35.23860        -0.69915
C         28.06053        37.45263        -0.08281
C         26.81214        38.05776        -0.37318
C         28.24096        40.46472         0.70005
C         26.43308        39.35909         0.09156
C         28.18943        41.77479         0.26316
C         26.99623        42.40523        -0.36465
C         28.20910        44.62956         0.11722
C         27.03812        43.93486        -0.56243
C         28.14945        46.09424         0.09680
C         26.90571        46.75126        -0.34391
C         28.21998        48.92275        -0.68525
C         26.91932        48.17816        -0.60237
C         28.16841        50.41683        -0.58309
C         27.01792        51.03616         0.20759
C         28.22865        53.28382         0.01772
C         26.95078        52.52416        -0.08248
C         28.15194        54.67762         0.22625
C         26.91636        55.37808         0.41555
C         26.87662        56.78725         0.51470
C         29.38783        12.37948         0.61297
C         30.64854        14.49214         0.74197
C         29.41843        13.78431         0.71298
C         30.70992        15.89922         0.65295
C         29.42061        16.61974         0.33014
C         30.70495        18.77207         0.59935
C         29.50543        18.09421         0.59088
C         30.73862        20.25090         0.91700
C         29.50240        20.98709         0.47636
C         30.77069        23.08175         0.29071
C         29.51891        22.35848         0.30531
C         30.76964        24.48605         0.11864
C         29.51324        25.22601        -0.00830
C         30.73476        27.35488        -0.34207
C         29.48838        26.58863        -0.21940
C         30.61422        28.82357        -0.08406
C         29.44708        29.56067        -0.57739
C         30.63263        31.69010        -0.21802
C         29.39620        30.94326        -0.41630
C         30.57534        33.11789        -0.21105
C         29.34913        33.83116        -0.25270
C         30.51100        35.99607         0.32200
C         29.30633        35.26361        -0.11842
C         30.52069        37.48099         0.34268
C         29.29613        38.17511         0.35115
C         30.62289        40.32669         0.66609
C         29.41825        39.64111         0.61154
C         30.66925        41.78133         0.93580
C         29.39380        42.54550         0.58821
C         30.70091        44.68377         0.32449
C         29.40994        44.00187         0.35248
C         30.72235        46.06842         0.03342
C         29.47681        46.83505         0.05892
C         30.77979        48.99179        -0.34896
C         29.51779        48.21958        -0.49949
C         30.74115        50.38613        -0.39191
C         29.49763        51.17203        -0.46209
C         29.43237        52.56844         0.00205
C         31.91201        16.61760         0.65004
C         33.16757        18.76651         0.51070
C         31.96648        18.05129         0.56213
C         33.22278        20.20978         0.42361
C         32.00943        20.94783         0.49688
C         33.24915        23.06060         0.21343
C         32.01022        22.35778         0.34332
C         33.24817        24.48065         0.13006
C         32.00373        25.16574         0.07209
C         33.24455        27.33498         0.31381
C         32.01791        26.62291        -0.13328
C         33.20654        28.84123         0.34605
C         31.89996        29.59149         0.20133
C         33.15485        31.67104        -0.40859
C         31.86894        31.00827        -0.12925
C         33.14620        33.16377        -0.31011
C         31.84099        33.87814        -0.19143
C         33.09278        36.03839         0.34361
C         31.81092        35.26134         0.37493
C         33.02082        37.49481         0.09811
C         31.81063        38.14984         0.32213
C         33.03028        40.38438        -0.00958
C         31.92676        39.60426         0.71801
C         33.25580        41.76721         0.63435
C         32.00667        42.57829         1.04821
C         33.10625        44.61400        -0.07800
C         31.92263        43.94949         0.34829
C         33.11336        45.99617        -0.33254
C         31.93767        46.77642        -0.22046
C         31.96065        48.20741        -0.30155
C         34.44184        20.91137         0.25427
C         35.70442        23.05865         0.04743
C         34.49014        22.33210         0.17650
C         35.73751        24.48209         0.00491
C         34.49414        25.20424         0.06262
C         35.72331        27.35617         0.15936
C         34.52251        26.62164         0.12861
C         35.67775        28.79900         0.14379
C         34.48523        29.50623         0.08892
C         35.73618        31.67054        -0.12050
C         34.46526        30.93445        -0.27043
C         35.69441        33.11998         0.12565
C         34.38362        33.81608         0.21139
C         35.61681        35.99988        -0.24899
C         34.38701        35.31313         0.24303
C         35.56986        37.49485        -0.26902
C         34.28123        38.20963        -0.01969
C         35.57363        40.28607         0.20980
C         34.32429        39.58677         0.02071
C         35.36539        41.67399         0.75037
C         34.38302        42.53729        -0.00163
C         34.36874        43.88147        -0.15104
C         36.94497        25.22512        -0.07838
C         38.19030        27.36866        -0.14657
C         36.98380        26.64973        -0.00583
C         38.27139        28.80896         0.11520
C         36.94843        29.55368         0.23912
C         38.17929        31.76261        -0.03035
C         36.93242        31.01768         0.02241
C         38.16497        33.15189        -0.14613
C         36.94022        33.89607        -0.03779
C         38.14115        36.05522        -0.20160
C         36.90938        35.27887        -0.14788
C         38.04828        37.50455        -0.08009
C         36.85940        38.20850        -0.07817
C         36.78331        39.62537         0.18856
C         39.46538        29.64406        -0.15989
C         40.65845        31.82091        -0.15909
C         39.43279        31.01891        -0.12567
C         40.65074        33.16369        -0.29174
C         39.38326        33.90753        -0.62283
C         39.34283        35.38100        -0.28153
O         34.24626        41.50779         1.74850
O         25.02951        14.39513        -0.62625
O         26.64174        41.84470        -1.68861
O         25.00527        22.41614        -0.75233
O         20.89600        11.15210        -1.24356
O         11.28234        37.41998        -0.01434
O         23.24445         6.47801        -1.26302
O         30.96947        29.22854         1.27381
O         33.93414        35.80496         1.54272
O         23.83279        12.05466         2.06301
O         22.18435        16.21801         2.24157
O         21.20664        35.44028        -3.04115
O         31.58504        27.01884        -1.49788
O         24.06293        35.48926        -2.97746
O         16.38775        27.26764         1.93902
O         19.83094        22.62185         1.82171
O         24.78101        39.17461        -2.68760
O         26.07275        48.64900        -1.69693
O         27.11058        26.32223         1.29594
O         31.05389        35.41324         1.59937
O         23.15160        27.61444        -1.85319
O         29.77076        42.22080         1.99290
O         28.71308        46.74120         1.30732
O         35.47765        36.70611        -1.52913
O         23.13209        45.58044        -1.82575
O         22.70630        56.99002         2.66653
O         33.18971        28.04240         1.58535
O         33.84055        31.16446        -1.61542
O         20.20329        42.56350        -2.70006
O         12.76142        36.04901         1.68148
O         25.09381        18.55234         2.52669
O         34.95235        33.28210         1.43733
O         13.80830        24.73091         1.70765
O         17.96710        41.20429        -2.81233
O         21.67738        48.13530         2.15524
O         37.68844        29.17628         1.44164
O         16.86124        30.19797        -1.41364
O         27.10611        39.84866         1.20339
O         18.41509        19.71038        -1.82241
O         17.44576        35.02324         0.90980
O         15.75028        24.29102        -1.27635
O         14.14096        33.73078         1.99743
O         23.78296        20.86654         2.47552
O         13.84053        20.73380        -1.83062
O         20.45031        31.71120         0.72866
O         24.90250        10.10345        -1.11120
O         27.23490        21.85136         1.94273
O         32.59104        33.84787        -1.47582
O         17.78629        16.43036        -1.95961
O         21.61782        27.46017         1.43644
O         17.26951        37.82170        -2.64383
O         28.38029        27.73173        -1.99728
O         18.42129        35.25400        -2.50969
O         20.96476        28.90537        -1.82528
O         26.34584        36.75073        -2.43904
O         22.09454        51.50588         2.58684
O         16.84743        47.01391         1.82332
O         24.30059        52.87271         2.24142
O         28.66368        51.08541        -1.72554
O         18.96203        13.04984         1.43509
O         28.95991        48.40045        -1.84024
O         22.91964        40.64233         0.22294
O         20.59395        20.93890        -1.17549
O          9.68526        29.47923         2.10337
O         26.01356        52.86168        -1.14260
O         27.36787        44.19161        -1.96540
H         26.95858        43.45946        -2.48931
O         28.02814        20.08051        -1.16921
H         28.64875        19.39708        -1.50354
O         19.26400        47.45039         2.54196
H         20.16380        47.36206         2.93522
O         16.87272        44.49697        -2.50642
H         17.51002        43.93512        -2.99927
O          8.79729        28.35918        -1.97146
H          9.00737        27.69084        -2.65535
O         32.17363        42.92184         2.43508
H         32.44582        42.10951         2.91332
O         30.72544        20.31289         2.39618
H         30.61690        21.25358         2.65394
O         12.20028        31.46707        -1.29647
H         11.35639        31.29316        -1.76689
O         26.83271        29.63817        -2.67066
H         27.16084        28.79205        -3.05420
O         39.30127        33.87688        -2.10188
H         38.49501        34.37285        -2.36144
O         22.21138        39.94367        -3.30645
H         21.50299        39.51771        -3.83306
O          6.43513        33.80595         2.24267
H          6.37458        32.86517         2.51674
O         32.31111        39.59396         2.12743
H         31.69961        38.99668         2.60819
O          9.02679        38.48743         2.56193
H          8.79777        37.63032         2.98497
O          7.79025        28.01902         1.50373
H          8.36289        28.39871         2.23345
O         32.64533        40.60542        -1.38076
H         32.68712        39.75398        -1.86414
O         22.98190        54.33337        -0.75512
H         23.03501        55.20247        -1.20533
O         13.28777        28.88187        -1.61729
H         13.18504        29.81280        -1.92998
O         20.37106        32.77562        -2.77176
H         20.42604        33.63060        -3.26613
O         18.81125        14.06650        -1.97491
H         18.39781        14.68000        -2.62567
O         27.41805        50.86149         1.59929
H         26.69930        51.18999         2.18199
O         13.17592        31.28213         2.20036
H         13.70521        31.89966         2.75375
O         23.14622         9.59579         2.13105
H         23.51221        10.31887         2.69526
O          8.70015        35.11474         2.98132
H          7.83138        34.63132         2.97805
O         29.27690        16.51744        -1.13777
H         29.25241        15.56248        -1.36463
H          4.98150        31.25238        -0.67986
H          4.83801        33.64516        -0.16511
H          7.53717        27.05497        -0.90555
H          6.11570        29.11059        -0.36485
H          6.17545        35.72168        -0.19542
H          7.48266        37.85940        -0.14645
H          9.84048        22.68195        -0.34843
H          8.67301        24.88477        -0.69383
H          8.75873        40.28952         0.65508
H          9.89076        42.26727         0.23029
H         12.41798        18.24918        -0.19370
H         11.05293        20.49282        -0.14274
H         11.07537        44.41856         0.17188
H         12.29849        46.57620         0.28693
H         14.83054        14.01272        -0.39783
H         13.62509        16.18991        -0.26281
H         13.56657        48.71811         0.40801
H         14.89579        50.85545         0.52229
H         17.27687         9.67290        -0.67740
H         16.01900        11.84624        -0.65734
H         16.14513        52.88365         0.75663
H         17.31296        54.97574         1.05645
H         19.72465         5.40160         0.14237
H         18.49476         7.49497        -0.31715
H         18.48812        57.14544         1.17526
H         19.72105        59.33052         1.32129
H         23.09759         2.21030         1.45939
H         20.95759         3.36901         1.00910
H         22.99900        62.74902         0.75996
H         20.90585        61.46991         1.16229
H         25.28157         3.32253         1.19070
H         26.58608         5.41952         0.61978
H         26.50169        59.47822         0.56711
H         25.18425        61.57933         0.53387
H         27.84937         7.52821         0.33290
H         29.12539         9.70253         0.42040
H         29.08488        55.26052         0.24700
H         27.80307        57.36467         0.38135
H         30.34156        11.83245         0.56442
H         31.58521        13.91606         0.79781
H         31.67860        50.94392        -0.23983
H         30.37514        53.09192         0.22301
H         32.85903        16.06646         0.76232
H         34.11783        18.21095         0.49433
H         34.06396        46.48480        -0.59316
H         32.93849        48.71023        -0.34687
H         35.38265        20.34301         0.19949
H         36.65435        22.50414         0.00675
H         36.27514        42.14960         1.18165
H         35.29980        44.44930        -0.29965
H         37.89690        24.67907        -0.16480
H         39.10561        26.83044        -0.43649
H         38.99155        38.06137         0.03255
H         37.71108        40.17011         0.42179
H         40.43120        29.13268        -0.29656
H         41.61214        31.29047        -0.01292
H         41.59749        33.72477        -0.28267
H         40.28593        35.94857        -0.31159
