         429
 CSIRO Nanostructure Databank - Neutral Graphene Oxide Data Set
C          1.35227         3.66158        -2.13612
C          0.14906         4.32874        -2.01654
C          1.26397         6.33445        -1.16663
C          0.09815         5.64942        -1.52515
C          1.22603         7.70539        -0.63046
C          0.01154         8.32517        -0.24448
C          1.16066        10.42702         0.20382
C         -0.01826         9.64596         0.17383
C          1.13681        11.86841         0.37322
C         -0.01353        12.60959         0.74059
C          1.05495        14.74655         0.20723
C         -0.02260        14.00218         0.75884
C          1.14800        16.21125         0.20076
C         -0.07430        16.94052         0.42307
C          1.02456        19.14454         0.40764
C         -0.14598        18.29082         0.59602
C          0.98834        20.58240         0.77939
C         -0.18048        21.32547         0.73256
C          1.04470        23.46623         0.87132
C         -0.16520        22.72803         0.83420
C          1.05314        24.91702         0.82386
C         -0.14495        25.67145         0.82645
C          1.07244        27.77945         0.57609
C         -0.13419        27.05129         0.73890
C          1.06424        29.20844         0.46653
C         -0.07303        30.03726         0.58916
C          1.16997        32.15215         0.22247
C         -0.03904        31.42081         0.39356
C          1.27399        33.54960         0.08173
C          0.09708        34.39417         0.03275
C          1.48423        36.46739         0.15111
C          0.16981        35.74488         0.00557
C          1.47760        37.83158        -0.48457
C          3.81309         3.65653        -1.88972
C          2.56996         4.30964        -1.77217
C          3.74056         6.32149        -0.95659
C          2.51936         5.66908        -1.31576
C          3.75020         7.83499        -0.86525
C          2.41759         8.43892        -0.49139
C          3.64064        10.56263        -0.02639
C          2.39713         9.80030        -0.10278
C          3.61945        11.98365        -0.03807
C          2.30387        12.59626         0.00183
C          3.90286        14.98083        -0.13387
C          2.11058        13.96034        -0.29179
C          3.67858        16.31867         0.31581
C          2.38088        16.91893         0.23289
C          3.60339        19.10051         0.66888
C          2.36825        18.39943         0.28214
C          3.54947        20.54676         0.98685
C          2.24954        21.29487         1.02389
C          3.52528        23.45654         0.94602
C          2.27588        22.76487         0.92250
C          3.52898        24.89093         0.84557
C          2.29610        25.61233         0.75135
C          3.56407        27.67884         0.37141
C          2.31187        27.03470         0.55936
C          3.59452        29.09883        -0.01104
C          2.31330        29.88145         0.07096
C          3.74395        32.01281         0.07787
C          2.41281        31.35471         0.30960
C          3.75164        33.44232        -0.22748
C          2.57314        34.19019        -0.11669
C          3.82427        36.20968        -0.81338
C          2.64526        35.61319        -0.28160
C          3.83836        37.64689        -1.11440
C          2.58897        38.38142        -1.01237
C          6.25333         3.62859        -1.64116
C          5.01803         4.26452        -1.44002
C          6.14758         6.24574        -0.35259
C          4.92718         5.60504        -0.89164
C          6.15849         7.70336        -0.16770
C          4.82957         8.36570         0.07681
C          6.07244        10.59186         0.17652
C          4.87065         9.87842         0.04081
C          6.08040        12.00428         0.30799
C          4.85168        12.71327         0.15141
C          5.98715        14.78884         1.15867
C          4.89807        14.14675         0.33149
C          6.04332        16.29774         1.00634
C          4.85587        17.01048         0.74243
C          6.02413        19.17274         1.21219
C          4.80479        18.44673         0.85508
C          6.02232        20.54997         1.23287
C          4.82374        21.29547         0.69032
C          5.98899        23.45796         1.12946
C          4.76167        22.75978         1.03465
C          6.00373        24.87248         0.94142
C          4.77080        25.57881         0.78141
C          6.04785        27.66134         0.36753
C          4.78355        26.98360         0.51962
C          6.09648        29.02928        -0.00067
C          4.88819        29.81143        -0.07002
C          6.12903        31.84689        -0.69765
C          4.93159        31.18704        -0.23147
C          6.14152        33.18824        -0.99465
C          5.09165        34.10818        -0.41141
C          6.05878        36.06041        -1.90105
C          4.97001        35.45509        -1.05226
C          6.25510        37.53169        -1.55487
C          5.02979        38.27741        -1.38158
C          8.80404         3.72632        -1.76680
C          7.54471         4.07261        -1.00303
C          8.66072         6.38520        -0.62786
C          7.48542         5.52312        -0.52455
C          8.60053         7.68773        -0.17575
C          7.34059         8.36659         0.03727
C          8.61715        10.61821         0.25412
C          7.34768         9.85802         0.04808
C          8.57036        12.04551         0.65165
C          7.32605        12.73320         0.60457
C          8.51566        14.81994         1.19614
C          7.31632        14.10934         0.93862
C          8.49603        16.26734         1.43116
C          7.25477        16.99365         1.31516
C          8.46112        19.12655         1.66392
C          7.24796        18.41683         1.44121
C          8.48627        20.56212         1.70367
C          7.17866        21.31926         1.80843
C          8.43083        23.45079         1.34723
C          7.22898        22.76121         1.34793
C          8.47431        24.87042         1.11030
C          7.24985        25.56184         0.87866
C          8.51164        27.65219         0.51725
C          7.26922        26.95812         0.57642
C          8.52946        29.02448         0.15999
C          7.34242        29.67979        -0.16572
C          8.60605        31.81155        -0.56521
C          7.36925        30.99620        -0.91008
C          8.61324        33.24998        -0.95666
C          7.36105        33.74290        -1.70801
C          8.68120        35.97433        -1.94276
C          7.36735        35.26240        -1.94811
C          8.72759        37.45443        -1.78534
C          7.47664        38.15228        -1.56604
C         11.17190         4.03188        -2.34956
C          9.91347         4.52452        -1.83850
C         11.09085         6.70658        -1.20031
C          9.78006         6.01320        -1.56967
C         11.14995         7.61675         0.02109
C          9.85172         8.38020         0.21459
C         11.12636        10.54239         0.68103
C          9.84544         9.82494         0.55150
C         11.05690        11.94249         1.26379
C          9.76016        12.71015         0.99307
C         11.00299        14.83475         1.44179
C          9.75098        14.11410         1.20102
C         10.96475        16.26387         1.73831
C          9.69377        16.96917         1.68096
C         10.88942        19.13613         2.02586
C          9.69338        18.40988         1.78160
C         10.93526        20.55948         1.98385
C          9.68818        21.25295         1.77387
C         10.97474        23.46709         1.62444
C          9.70455        22.70685         1.48488
C         10.94162        24.97841         1.73917
C          9.70315        25.59946         1.13264
C         11.01567        27.66749         0.69360
C          9.73910        26.96395         0.81432
C         11.05569        29.01957         0.36851
C          9.78228        29.81992         0.41641
C         11.08681        31.93616        -0.10943
C          9.86177        31.10430        -0.35973
C         11.12294        33.21921        -0.91405
C          9.92524        33.90589        -1.18948
C         11.16362        35.90787        -1.80285
C          9.94157        35.24104        -1.64361
C         11.17514        37.34233        -2.30275
C          9.92516        38.08802        -1.89935
C         13.61708         4.24038        -2.72013
C         12.36973         4.73430        -2.24604
C         13.62273         6.54724        -0.92275
C         12.36974         6.06505        -1.58309
C         13.59693         7.91113        -0.32698
C         12.40435         8.49343         0.02369
C         13.56785        10.58967         0.80463
C         12.30764         9.87260         0.51784
C         13.55515        12.05379         0.97725
C         12.24707        12.77395         0.79366
C         13.48797        14.85676         1.59722
C         12.20593        14.16473         1.37499
C         13.45108        16.29893         1.97186
C         12.12837        16.94711         2.06123
C         13.43832        19.15552         2.43261
C         12.09789        18.38444         2.37649
C         13.41368        20.60025         2.14452
C         12.17838        21.27507         2.06711
C         13.44504        23.46660         1.71530
C         12.18881        22.79189         2.22752
C         13.45152        24.81124         1.33356
C         12.23370        25.57970         1.22625
C         13.50229        27.59088         0.57550
C         12.25243        26.91675         0.82613
C         13.51913        28.96940         0.23106
C         12.29800        29.71804         0.13823
C         13.57758        31.72716        -0.50976
C         12.34430        31.09909        -0.17972
C         13.60898        33.12210        -0.96265
C         12.36546        33.84527        -1.18296
C         13.63111        35.90729        -1.88166
C         12.36381        35.19747        -1.62421
C         13.62841        37.39389        -1.81466
C         12.44522        38.06440        -1.92570
C         16.05802         4.44362        -3.02460
C         14.83785         4.90545        -2.49775
C         16.09756         6.91003        -1.53407
C         14.90316         6.03017        -1.52074
C         16.09917         8.14500        -0.87781
C         14.96235         8.45092         0.08461
C         15.99635        10.84613         0.24770
C         14.87549         9.90833         0.52855
C         16.00349        12.10018         1.01622
C         14.74299        12.70102         1.29037
C         15.96748        14.67318         2.43760
C         14.69860        14.04038         1.93042
C         15.95406        16.19425         2.73535
C         14.66668        16.95596         2.56893
C         15.88326        19.09351         2.05675
C         14.70488        18.42442         2.32276
C         15.86812        20.53178         1.84848
C         14.66393        21.25701         1.95051
C         15.93529        23.36164         1.35407
C         14.73520        22.76330         2.03208
C         15.93259        24.74404         1.05752
C         14.70874        25.48435         1.04391
C         15.98161        27.55743         0.56969
C         14.72465        26.86290         0.70921
C         15.98310        28.93821         0.27760
C         14.76864        29.64281         0.02931
C         16.07600        31.60860        -0.90488
C         14.78329        31.00226        -0.39470
C         16.08294        33.11446        -0.88422
C         14.83575        33.77070        -1.13304
C         16.12725        35.94245        -1.30135
C         14.90806        35.16942        -1.59942
C         16.08476        37.39100        -1.44342
C         14.89666        38.06326        -1.65831
C         18.54563         4.53671        -3.07761
C         17.26838         5.16275        -2.84061
C         18.42756         7.30138        -2.28023
C         17.23581         6.46215        -2.25793
C         18.43717         8.55843        -1.53527
C         17.29221         8.95824        -0.88307
C         18.50758        11.07254        -0.08271
C         17.24851        10.35315        -0.37440
C         18.48070        12.23830         0.74264
C         17.22418        12.77199         1.24376
C         18.47303        14.38921         2.50026
C         17.22515        13.94352         2.05708
C         18.41535        16.52574         3.03867
C         17.20555        17.02882         2.63860
C         18.34121        19.08448         1.87606
C         17.15988        18.40116         2.15931
C         18.30132        20.43628         1.37105
C         17.09167        21.18703         1.48436
C         18.31527        23.20582         0.72236
C         17.10663        22.58777         1.19214
C         18.37892        24.62349         0.59195
C         17.17975        25.41281         0.79068
C         18.51359        27.49192         0.69960
C         17.20516        26.81249         0.69310
C         18.57002        28.97759         0.54485
C         17.23594        29.72325         0.33105
C         18.52180        31.73224        -0.29530
C         17.30678        31.03996        -0.26651
C         18.54188        33.14505        -0.59926
C         17.27830        33.83265        -0.80521
C         18.51414        36.04778        -0.55557
C         17.27028        35.27745        -0.92157
C         18.51814        37.45910        -1.10473
C         17.34086        38.10116        -1.38949
C         19.73092         5.14207        -2.76207
C         20.94625         7.20684        -1.82181
C         19.79937         6.57752        -2.50953
C         20.90432         8.46986        -1.35734
C         19.71054         9.39318        -1.58255
C         20.89168        11.31044        -0.39742
C         19.70284        10.58522        -0.63070
C         20.89606        12.44403         0.39956
C         19.70878        12.92413         1.00993
C         20.87027        14.87938         2.18071
C         19.70330        14.05857         1.90367
C         20.88627        16.18667         2.57531
C         19.74113        17.10649         2.77788
C         20.77654        19.00132         1.27861
C         19.67873        18.49115         2.10974
C         20.64953        20.20165         0.65655
C         19.46474        21.01494         0.80849
C         20.61765        23.04274        -0.08200
C         19.46833        22.40889         0.45294
C         20.67615        24.41979        -0.21196
C         19.59536        25.23106         0.18601
C         20.88836        27.43342        -0.23614
C         19.75451        26.69099         0.35356
C         20.89965        28.79018        -0.32798
C         19.78375        29.61939         0.05471
C         20.99118        31.75304        -0.30731
C         19.77528        31.01901        -0.13430
C         20.98562        33.10292        -0.54104
C         19.76390        33.83929        -0.67107
C         20.94794        35.98924        -1.07724
C         19.79169        35.28389        -0.84216
C         20.95232        37.41786        -1.20706
C         19.78548        38.13164        -1.22667
O         16.24965        11.10645        -1.18782
O         15.06717        13.96102         3.34593
O         18.47255        15.25068         3.60464
O         14.39012         9.97691         1.89666
O          8.05888        35.55304        -3.22188
O         19.43913        27.05762         1.75023
O         10.61894        22.98057         0.31317
O          8.13294        10.37993        -1.10832
O         19.15998         7.37355        -3.55486
O         12.69542        18.77588         3.64980
O          1.70199        18.98983        -0.89331
O         11.79697         7.18756        -2.38207
O          3.04866        14.54084        -1.15541
O          2.95780        20.80554         2.29048
O          2.79718        29.41868        -1.23378
O         15.10775        16.51817         3.88763
O          3.24065        31.70702         1.46684
O         20.03836        18.31541         3.53367
O         14.41470        35.35466        -2.99362
O          6.81055         5.56625         0.77831
O          8.35951        32.93306         0.45713
O         17.90559        29.66270         1.64305
O         13.76243        15.88735         0.56652
O         14.41841         5.57863        -0.19634
O          9.68824         8.82893         1.63826
O         19.84110         9.94769        -2.91893
H         19.70371         9.19655        -3.54685
O          1.66413        36.70028         1.59768
H          1.74771        35.82106         2.02525
O         10.99161        32.43135         1.29835
H         10.11143        32.88716         1.34410
O          5.64218        14.54791         2.57459
H          6.34868        14.95367         3.12100
O          7.47926        30.58048        -2.29520
H          7.38754        31.38877        -2.86084
O         12.15248        23.00880         3.66364
H         13.05939        22.82217         4.00803
O         14.94449        23.02065         3.49547
H         15.17757        23.97027         3.59044
O         16.14073        31.22835        -2.33503
H         15.41787        31.70674        -2.79557
O          4.42074         7.96397         1.41580
H          5.17478         8.10255         2.02608
O          9.34448         6.56883        -2.84704
H         10.15798         6.89837        -3.29969
O          9.63741        30.19980         1.84273
H         10.28851        30.93333         2.00181
O         11.26790         6.71233         1.14675
H         10.96935         7.20484         1.94436
O          4.10001         8.30199        -2.19772
H          3.39243         8.02388        -2.81581
O          6.90147        21.41489         3.25465
H          6.80235        20.50242         3.60042
O         12.07500        12.92894        -0.64934
H         12.73027        13.58563        -0.96836
O         15.31715         7.68900         1.27254
H         14.79521         8.06867         2.01762
O         11.17095        11.80879         2.70167
H         10.56697        11.09608         2.99822
O          7.62431         3.21990         0.19172
H          7.14203         3.70445         0.90437
O          4.95283        21.25987        -0.77239
H          5.79340        21.70236        -1.01575
O         11.16089        37.28236        -3.76794
H         11.97370        36.81045        -4.04982
O          5.58904        34.39369         0.96539
H          5.63491        33.53645         1.44330
O          7.38575        33.13609        -3.02860
H          7.82316        33.78788        -3.63083
O          5.52345        36.05460        -3.25953
H          6.29209        36.20365        -3.85737
O         18.47425        36.19232         0.90926
H         19.28401        36.67837         1.17385
O         10.87252        25.29482         3.16019
H         10.85052        26.27044         3.25286
H          1.38344         2.62546        -2.50204
H         -0.78749         3.82595        -2.29558
H         -0.88188         6.13661        -1.43208
H         -0.93083         7.76221        -0.28783
H         -0.98282        10.10358         0.43426
H         -0.90959        12.07459         1.08464
H         -0.90260        14.51499         1.17044
H         -1.00265        16.36190         0.52646
H         -1.09439        18.74762         0.91288
H         -1.14528        20.82274         0.57387
H         -1.12755        23.25410         0.79717
H         -1.11436        25.16314         0.91294
H         -1.09200        27.58857         0.76084
H         -1.04930        29.58090         0.80731
H         -0.99474        31.96272         0.42215
H         -0.89065        33.91134         0.00750
H         -0.75166        36.34592        -0.01310
H          0.54649        38.41486        -0.42123
H          3.85158         2.64261        -2.31490
H          2.56881        39.41374        -1.39417
H          6.24750         2.62834        -2.10231
H          5.06695        39.37604        -1.44396
H          8.88942         2.67219        -2.07758
H          7.52285        39.24365        -1.42325
H         11.19311         3.01100        -2.76268
H          9.97724        39.18430        -1.81046
H         13.62385         3.31015        -3.30875
H         12.43382        39.16500        -1.89561
H         16.07753         3.50334        -3.59600
H         14.90850        39.16180        -1.72405
H         18.54220         3.47077        -3.35051
H         17.35117        39.16700        -1.66627
H         20.65789         4.55201        -2.70671
H         21.83194         6.57890        -1.63578
H         21.78700         8.87293        -0.83791
H         21.82941        10.98504        -0.86891
H         21.84244        12.97796         0.56107
H         21.85339        14.41762         1.99601
H         21.87355        16.65242         2.71747
H         21.71901        18.43889         1.22769
H         21.49630        20.58677         0.07258
H         21.50352        22.45278        -0.34994
H         21.60552        24.88151        -0.57195
H         21.75016        26.86722        -0.61610
H         21.78071        29.27798        -0.76920
H         21.95226        31.23489        -0.18544
H         21.94594        33.63176        -0.60428
H         21.90635        35.46800        -1.20921
H         21.91434        37.92797        -1.35434
H         19.79493        39.21370        -1.42465
