         349
 CSIRO Nanostructure Databank - Neutral Graphene Oxide Data Set
C          1.12972         3.46643         1.26416
C         -0.02011         4.20555         1.31383
C          1.10534         6.32059         0.73173
C         -0.04735         5.60178         1.02597
C          1.13951         7.75286         0.55567
C         -0.07654         8.53916         0.62145
C          1.04929        10.64885        -0.16505
C         -0.12327         9.86157         0.35064
C          1.30303        11.94416         0.68757
C          0.08949        12.80571         0.85619
C          1.18967        14.91085         0.17399
C          0.06829        14.14823         0.66251
C          1.17315        16.30591         0.09598
C          0.07931        17.09795         0.56573
C          1.13472        19.25802         0.06069
C          0.04982        18.48527         0.52667
C          1.14687        20.68779         0.00373
C         -0.05885        21.46150         0.07384
C          1.17741        23.55752        -0.27540
C         -0.03857        22.82439        -0.06448
C          1.19059        24.96141        -0.40504
C         -0.02954        25.74731        -0.37210
C          1.32512        27.78856        -0.09983
C          0.00820        27.09685        -0.30671
C          1.28281        29.26625        -0.36631
C          3.65787         3.40770         0.97624
C          2.36716         4.04584         0.74314
C          3.64110         6.30003         0.58976
C          2.35746         5.58179         0.48099
C          3.61174         7.73940         0.45007
C          2.35988         8.40400         0.27791
C          3.66524        10.56300        -0.14955
C          2.35346         9.82125        -0.17078
C          3.66706        12.04679        -0.07894
C          2.49734        12.70935         0.14613
C          3.68933        14.91384        -0.06024
C          2.38374        14.13786        -0.35603
C          3.64740        16.30805        -0.67523
C          2.33257        17.03273        -0.50730
C          3.64258        19.26210        -0.38805
C          2.31935        18.53665        -0.45238
C          3.64134        20.67860         0.07286
C          2.37361        21.40529        -0.11855
C          3.66628        23.47212        -0.49067
C          2.41983        22.80938        -0.26328
C          3.61961        24.83434        -1.13257
C          2.42574        25.65983        -0.70691
C          3.66740        27.75759        -1.24215
C          2.45239        27.03593        -0.78834
C          3.66874        29.29825        -1.06118
C          2.38135        29.95304        -0.69162
C          6.10674         3.44403         0.82194
C          4.85210         4.11881         0.81828
C          6.10020         6.27260         0.89199
C          4.82156         5.56978         0.72303
C          6.09112         7.77323         0.76487
C          4.84081         8.47907         0.42675
C          6.15240        10.59668         0.10544
C          4.90990         9.85067         0.16522
C          6.18554        11.99567        -0.19717
C          4.93784        12.74880        -0.31099
C          6.18792        14.85828        -0.66239
C          4.94041        14.12449        -0.39015
C          6.21847        16.32038        -0.48416
C          4.95583        17.05362        -0.70159
C          6.13141        19.15774         0.26658
C          4.95181        18.53619        -0.46287
C          6.22167        20.64092        -0.12187
C          4.96190        21.41453         0.03085
C          6.12436        23.44584        -0.79761
C          4.91281        22.81694        -0.41806
C          6.15571        24.85457        -0.98632
C          4.92522        25.58279        -1.01100
C          6.18176        27.53552        -1.58627
C          4.92810        26.95587        -1.26647
C          6.13817        29.66845        -1.07241
C          4.88600        30.00187        -0.61837
C          8.59684         3.42450         0.62406
C          7.34835         4.12972         0.72164
C          8.64845         6.28021         0.96860
C          7.35769         5.53697         0.75720
C          8.61363         7.66431         0.35042
C          7.35013         8.43546         0.32274
C          8.60126        10.60012         0.39624
C          7.37909         9.91304         0.28066
C          8.62546        11.99369         0.17676
C          7.43980        12.66653        -0.21795
C          8.78948        14.85707        -0.58721
C          7.49014        14.08822        -0.64260
C          8.78879        16.39550        -0.61499
C          7.42362        17.04904        -0.34610
C          8.63445        19.21230         0.28177
C          7.40495        18.40561        -0.00623
C          8.63910        20.43762        -0.68422
C          7.36526        21.23944        -0.52768
C          8.66461        23.40324        -0.86093
C          7.36861        22.64111        -1.11220
C          8.65781        24.82509        -0.92550
C          7.41635        25.54414        -1.05375
C          8.67272        27.79363        -1.39640
C          7.41104        26.93997        -1.29996
C          8.56947        29.18316        -0.71120
C          7.40969        29.96129        -0.51261
C         11.03152         3.38148         0.26059
C          9.82126         4.09036         0.44460
C         10.99445         6.24956         0.10857
C          9.86849         5.54634         0.46817
C         11.07164         7.71302         0.22196
C          9.88975         8.40606         0.38364
C         11.18901        10.53802         0.79580
C          9.85007         9.83896         0.68650
C         11.19108        12.03192         0.70370
C          9.89121        12.74023         0.39597
C         11.23687        14.84928         0.29910
C         10.01320        14.13035        -0.13548
C         11.13951        16.28333         0.52895
C          9.79085        16.98095         0.41335
C         11.15695        19.25171         0.41708
C          9.91564        18.45979         0.16055
C         11.09398        20.61398        -0.24397
C          9.91131        21.25408        -0.50193
C         11.10430        23.44723        -0.59138
C          9.87844        22.70402        -0.71929
C         11.09501        24.86499        -0.68024
C          9.88676        25.57107        -0.85820
C         11.06145        27.71762        -0.58183
C          9.89368        27.01858        -0.91336
C         11.02435        29.15874        -0.37529
C          9.76603        29.80079        -0.32039
C         13.44079         3.37675        -0.21859
C         12.23503         4.05039        -0.05992
C         13.47905         6.26471        -0.60632
C         12.18128         5.50384        -0.34830
C         13.51507         7.80012        -0.58281
C         12.32743         8.43260         0.11673
C         13.66080        10.51997         0.31652
C         12.39856         9.79644         0.36979
C         13.65904        11.96879         0.41133
C         12.48522        12.71077         0.44460
C         13.69525        14.90516         0.36729
C         12.45701        14.16763         0.39425
C         13.69429        16.31283         0.29124
C         12.45421        17.07614         0.47948
C         13.63960        19.16817        -0.07039
C         12.43715        18.49942         0.15220
C         13.64632        20.59159        -0.26412
C         12.37638        21.27713        -0.68895
C         13.55212        23.43397        -0.18768
C         12.34852        22.75194        -0.42177
C         13.39873        24.86324         0.32304
C         12.42622        25.58474        -0.66230
C         13.47260        27.76855        -0.07594
C         12.30950        27.05106        -0.36885
C         13.45429        29.22013        -0.04722
C         12.19840        29.87722        -0.14444
C         15.86068         3.32228        -0.54222
C         14.68574         4.06790        -0.42763
C         15.98386         6.20555        -0.37424
C         14.71065         5.49825        -0.46347
C         16.01491         7.68740        -0.39859
C         14.84027         8.41056        -0.14986
C         16.18607        10.36927         0.70602
C         14.86522         9.79339         0.20076
C         16.25322        11.91935         0.51967
C         14.96026        12.68575         0.33576
C         16.13067        14.87349         0.53495
C         14.94821        14.17799         0.44454
C         16.16124        16.29956         0.15469
C         14.89888        17.05513         0.12413
C         16.13941        19.21428         0.02450
C         14.90387        18.45613         0.01285
C         16.11957        20.64629        -0.09473
C         14.83505        21.32104        -0.23934
C         16.02667        23.53479        -0.41087
C         14.78414        22.75277        -0.25419
C         15.98098        24.99759        -0.10487
C         14.75516        25.62219         0.53794
C         15.90999        27.79994         0.24603
C         14.71816        27.09563         0.16046
C         15.90861        29.25934         0.19992
C         14.64638        29.92804         0.08821
C         17.78016         3.46216        -2.10324
C         17.22933         3.90124        -0.76328
C         18.42585         6.17886        -1.13593
C         17.25072         5.42586        -0.58344
C         18.44698         7.65581        -1.06927
C         17.28957         8.35619        -0.47258
C         18.67114        10.19936         0.32381
C         17.37808         9.64798         0.04978
C         18.67130        12.20601         1.26190
C         17.45140        12.73634         0.92823
C         18.63611        15.01386         1.19847
C         17.30967        14.21600         1.21564
C         18.65664        16.47138         0.79994
C         17.43450        17.08800         0.20791
C         18.60496        19.27700         0.18836
C         17.37790        18.56163         0.17823
C         18.57106        20.69799         0.03839
C         17.32158        21.36824        -0.10608
C         18.54280        23.58733         0.02571
C         17.36398        22.81804        -0.56043
C         18.49476        24.98350         0.27904
C         17.24462        25.72165         0.21419
C         18.36626        27.86956         0.76527
C         17.17001        27.08801         0.40941
C         18.42791        29.38392         0.48912
C         17.07324        29.99368         0.29389
C         18.70349         4.17427        -2.76243
C         20.00743         6.31291        -3.14164
C         19.21527         5.46818        -2.25841
C         20.25070         7.60434        -2.78342
C         19.50753         8.26530        -1.74529
C         21.00122        10.95971        -0.08064
C         19.82974        10.22381        -0.42725
C         21.06027        12.12496         0.67983
C         19.94135        12.88119         1.14358
C         21.10918        15.07090         0.98999
C         19.94523        14.31259         1.15124
C         21.10785        16.45657         0.73182
C         19.93065        17.16869         0.53302
C         21.04309        19.33829         0.06382
C         19.87118        18.58634         0.24305
C         21.00720        20.73042        -0.03122
C         19.79888        21.43641         0.01156
C         20.94636        23.60406         0.45558
C         19.76936        22.89417         0.13299
C         20.91200        24.97754         0.65387
C         19.69629        25.67445         0.59772
C         19.02550        27.63212         2.12900
C         19.69397        27.13264         0.86822
C         19.44629        28.97461         2.60341
C         19.12125        29.94094         1.73139
O          3.08163        10.04501        -1.42364
O          9.72628        14.28193        -1.57052
O         12.76991        24.71286         1.55693
O         17.02079        16.48054        -1.06360
O         19.68142         5.50455        -0.86531
O         10.40240        12.66751         1.76549
O          6.12779         7.20476         2.11483
O          2.77171        16.49914        -1.81247
O          2.26438         4.62611        -0.60957
O          3.56231        28.68461        -2.37802
O          7.88214         7.79955        -0.91488
O          6.82745        14.36793        -1.91823
O         10.50404        10.07950         1.99525
O         19.83389         9.62038        -1.69871
O         18.75953        10.83612         1.57593
O         12.61718         5.80032        -1.72380
O         18.54924        16.07877         2.21790
O          6.20389        28.79793        -2.18581
O         15.80125        12.28672        -0.82481
O          5.17826        18.03082        -1.79534
O          4.29941        21.08329         1.30730
O          2.89089        19.17210        -1.63393
O         15.85567        24.56263        -1.48634
O         11.78973        16.74030         1.77663
O         16.88667         5.76002         0.78198
O          8.66879        19.94834        -2.05261
H          9.07485        19.04870        -2.06690
O         20.87806        27.80458         0.46952
H         21.25838        27.32715        -0.29561
O          2.21887        13.95335        -1.78056
H          2.19869        14.85002        -2.19941
O         19.22792        29.67939        -0.67430
H         20.12776        29.32766        -0.47915
O         13.02512        25.44580        -1.98106
H         12.48593        25.95988        -2.61822
O         16.20228        10.08540         2.12383
H         17.11459        10.26569         2.45054
O          0.72686        11.04928        -1.49867
H          1.57222        11.07594        -2.00740
O          3.75034        15.16114         1.37689
H          3.85404        14.29779         1.83053
O          7.31674        22.43096        -2.56520
H          7.80187        21.59530        -2.76337
O         13.40064         8.22971        -1.97677
H         12.80429         7.57849        -2.41783
O         16.89199        14.20241         2.62826
H         17.23742        15.03379         3.03429
O         11.19707        19.54739         1.89348
H         11.41644        18.68351         2.32126
O          9.21821        16.84551        -1.91515
H          8.85002        16.23372        -2.58906
O          1.62807        27.68790         1.34344
H          1.50950        26.74808         1.59985
O          8.50132        19.77513         1.62565
H          9.42442        19.88439         1.98089
O          8.90100        28.06999        -2.80937
H          8.08850        28.51722        -3.13927
O          3.46661        24.57147        -2.57148
H          3.48535        25.43615        -3.03500
O         17.64027        22.73285        -1.99132
H         17.20775        23.51876        -2.40168
O          1.67287        11.44421         2.00850
H          1.60882        12.18477         2.64696
O         12.37200        21.12601        -2.16352
H         11.62067        21.65432        -2.51084
O          5.85039        19.03447         1.68028
H          6.65800        19.35391         2.14944
O         15.02361        25.59392         1.95747
H         14.14552        25.31098         2.35431
O          9.13188        16.77642         1.69858
H          9.79193        16.98838         2.39585
O         18.10121         3.34870         0.25924
H         17.94696         3.87766         1.07275
O          8.79706         6.44553         2.41062
H          7.92680         6.76909         2.75046
H          1.15033         2.43641         1.64907
H         -0.94935         3.73522         1.66618
H         -1.00661         6.12245         1.14795
H         -1.00586         8.03402         0.92025
H         -1.09062        10.38271         0.40043
H         -0.81678        12.31671         1.24366
H         -0.86864        14.68055         0.88369
H         -0.79528        16.58742         0.99042
H         -0.84232        18.99563         0.91640
H         -1.02122        20.94731         0.20370
H         -0.99392        23.36488        -0.03009
H         -0.99989        25.23631        -0.43948
H         -0.91912        27.68795        -0.29357
H          0.34154        29.79307        -0.14706
H          3.68814         2.34310         1.25192
H          2.34309        31.04975        -0.78599
H          6.11079         2.34548         0.87811
H          4.78575        30.65871         0.25713
H          8.58161         2.32474         0.62090
H          7.50850        30.85974         0.11738
H         11.03663         2.28531         0.35219
H          9.72917        30.84262         0.03442
H         13.46845         2.28348        -0.10233
H         12.15122        30.97077        -0.03279
H         15.79880         2.22649        -0.46760
H         14.62613        31.02840         0.10025
H         17.42607         2.50485        -2.51314
H         17.01663        31.09228         0.23832
H         19.08804         3.82701        -3.73398
H         20.41432         5.89430        -4.07312
H         20.91209         8.23602        -3.39202
H         21.91868        10.68095        -0.62094
H         22.04253        12.62098         0.70470
H         22.08371        14.56565         1.03800
H         22.08076        16.95547         0.62525
H         22.01984        18.83663         0.04083
H         21.96034        21.26760        -0.12466
H         21.90281        23.07698         0.56601
H         21.83519        25.51887         0.90544
H         18.60943        26.89523         2.83425
H         19.96141        29.12775         3.56097
H         19.36039        31.00578         1.84667
