         638
 CSIRO Nanostructure Databank - Neutral Graphene Oxide Data Set
C         22.93696        69.80040        -0.30573
C         22.92933        71.15188         0.02486
C         21.71944        71.82459         0.38254
C         22.88218        73.95449         0.51038
C         21.71170        73.19876         0.60588
C         25.46731        65.54290        -0.36400
C         25.40371        66.97344        -0.47619
C         24.20928        67.65534        -0.52548
C         25.43462        69.83609        -0.51209
C         24.15133        69.12229        -0.86963
C         25.39618        71.27106        -0.24206
C         24.15393        71.92277        -0.01893
C         25.33284        74.07745         0.14460
C         24.12874        73.33226         0.21434
C         27.89618        61.28547        -0.54741
C         27.86405        62.69992        -0.61539
C         26.69235        63.42531        -0.44735
C         27.91614        65.58909        -0.71111
C         26.66510        64.85451        -0.49027
C         27.86672        67.03822        -0.73416
C         26.66470        67.70366        -0.60205
C         27.88092        69.84315        -0.04133
C         26.62016        69.14969        -0.50593
C         27.88760        71.31933        -0.45956
C         26.58301        72.01310        -0.18664
C         27.80167        74.16660        -0.19055
C         26.56987        73.43541        -0.05896
C         30.41443        57.07686        -0.21010
C         30.38804        58.47720        -0.16335
C         29.17176        59.17575        -0.41095
C         30.33929        61.33901        -0.10301
C         29.10792        60.57250        -0.43472
C         30.32448        62.82732        -0.20234
C         29.14741        63.41000        -0.98811
C         30.37431        65.61409        -1.29612
C         29.09844        64.91031        -0.89082
C         30.40052        67.08606        -0.99326
C         29.09608        67.82364        -1.13836
C         30.33674        69.90817        -0.53750
C         29.15531        69.20614        -0.55152
C         30.36491        71.34855        -0.26836
C         29.09140        72.05836         0.13840
C         30.26362        74.22470        -0.35757
C         29.05448        73.53271        -0.22169
C         32.83331        52.73439         0.52377
C         32.79173        54.22416         0.69941
C         31.61032        54.93863         0.07789
C         32.83296        57.05508         0.54178
C         31.59149        56.31286         0.06047
C         32.87224        58.50306         0.07805
C         31.62814        59.23398         0.00565
C         32.85656        61.36777        -0.27097
C         31.63284        60.62487        -0.07611
C         32.85803        62.75941        -0.45911
C         31.64083        63.60422        -0.11981
C         32.83673        65.61658        -0.92730
C         31.63530        64.93498        -0.83298
C         32.86407        67.06358        -1.08969
C         31.59448        67.76967        -0.99270
C         32.77479        69.92636        -0.91842
C         31.60159        69.22732        -0.84197
C         32.75922        71.39552        -0.82775
C         31.51071        72.07484        -0.42974
C         32.72802        74.21102        -0.21506
C         31.52520        73.54012        -0.32327
C         35.25924        48.46710         0.64729
C         35.23752        49.88705         0.74887
C         34.04529        50.59812         0.61307
C         35.31131        52.70714         0.46898
C         34.02526        52.02900         0.54921
C         35.34397        54.13560        -0.00647
C         34.07565        54.90532         0.27805
C         35.35235        56.97687         0.10269
C         34.09182        56.26176         0.20868
C         35.30306        58.37224        -0.46516
C         34.05364        59.16413        -0.15779
C         35.28398        61.25383        -0.67301
C         34.09711        60.60199        -0.37905
C         35.29684        62.69692        -0.96722
C         34.05689        63.48065        -0.78777
C         35.34609        65.61652        -1.29407
C         34.08116        64.87187        -0.88695
C         35.31753        67.08956        -0.96422
C         34.07761        67.76986        -1.09520
C         35.30255        69.94928        -0.67930
C         34.08580        69.26926        -1.29012
C         35.30333        71.34268        -0.49154
C         34.05004        72.12296        -0.63549
C         35.27494        74.20937        -0.10863
C         33.99332        73.45534         0.08715
C         37.77526        44.31440         0.12449
C         37.73915        45.66675         0.44585
C         36.51681        46.39010         0.43759
C         37.64866        48.42530         1.40233
C         36.45030        47.74661         0.77574
C         37.69937        49.91937         1.10831
C         36.50254        50.59916         0.86914
C         37.81070        52.71913         0.38378
C         36.49200        52.02526         0.64427
C         37.74227        54.20258         0.67866
C         36.57927        54.88375         0.46830
C         37.82210        57.11841         0.59637
C         36.53521        56.33482         0.38252
C         37.84103        58.36962        -0.28451
C         36.54358        59.18130        -0.07358
C         37.77614        61.27085        -0.25068
C         36.59172        60.50902        -0.82244
C         37.79576        62.73977        -0.40239
C         36.60144        63.45310        -0.94470
C         37.69473        65.60910        -0.35228
C         36.59273        64.92604        -0.80191
C         37.70893        67.06397        -0.28355
C         36.50693        67.77767        -0.61511
C         37.70406        69.91153        -0.14729
C         36.49527        69.21723        -0.46586
C         37.71392        71.34164        -0.09939
C         36.49201        72.05180        -0.21344
C         37.72787        74.19478        -0.11858
C         36.47742        73.51443        -0.14589
C         40.23590        40.09233        -0.78171
C         40.16668        41.37728        -0.09978
C         38.97452        42.21802        -0.19434
C         40.24326        44.25671         0.42972
C         38.99191        43.56186         0.13744
C         40.24117        45.64505         0.69105
C         38.98024        46.37365         0.75565
C         40.19440        48.39224         1.48619
C         38.94853        47.70294         1.10306
C         40.15363        49.88773         1.66422
C         38.93323        50.64642         1.26810
C         40.21856        52.77293         1.12850
C         38.99967        52.02018         1.01435
C         40.26861        54.14667         0.89969
C         39.00593        54.94520         1.05618
C         40.32893        56.92258        -0.05380
C         39.05528        56.29669         0.42479
C         40.35164        58.44350         0.06611
C         39.10364        59.17576        -0.08556
C         40.28190        61.33248        -0.01264
C         39.07541        60.55259        -0.15427
C         40.28402        62.71317         0.01436
C         39.10289        63.48052        -0.52455
C         40.13258        65.55812         0.54123
C         38.90960        64.85178         0.07732
C         40.06825        67.04884         0.63233
C         38.87082        67.76171         0.12798
C         40.15173        69.90957         0.25954
C         38.91129        69.18835         0.10052
C         40.16365        71.34846         0.16979
C         38.94970        72.05266         0.03076
C         40.17964        74.19159         0.00793
C         38.94739        73.49982        -0.02889
C         42.69030        36.12411        -2.30880
C         42.68289        37.44317        -1.79871
C         41.47299        38.12170        -1.53278
C         42.71440        40.09565        -0.70818
C         41.45327        39.42923        -0.98232
C         42.74753        41.41502        -0.18349
C         41.48864        42.07263         0.24080
C         42.69572        44.21993         0.54326
C         41.47855        43.54652         0.40042
C         42.70877        45.62402         0.76359
C         41.47638        46.33329         0.89336
C         42.70701        48.42736         1.33080
C         41.49585        47.72627         1.23675
C         42.73676        49.87039         1.53385
C         41.46891        50.60403         1.72939
C         42.75644        52.76851         1.29295
C         41.47311        52.09368         1.51159
C         42.75144        54.17346         1.06799
C         41.51700        54.86787         0.84930
C         42.77359        56.94938         0.54785
C         41.55583        56.25127         0.52285
C         42.86680        58.40952         0.15301
C         41.53586        59.11988         0.12877
C         42.75716        61.33315         0.48008
C         41.59265        60.60344        -0.14203
C         42.72177        62.75630         0.51544
C         41.48962        63.46510         0.30912
C         42.66181        65.60297         0.60500
C         41.44540        64.86142         0.47719
C         42.65636        67.04839         0.62245
C         41.38700        67.79225         0.69882
C         42.62111        69.93274         0.47968
C         41.37923        69.23410         0.41749
C         42.62709        71.37584         0.39679
C         41.40894        72.06200         0.23826
C         42.63328        74.20346         0.11833
C         41.40732        73.50666         0.12594
C         45.12432        33.47581        -3.35564
C         43.91679        34.11941        -3.08720
C         45.14693        36.11940        -2.35723
C         43.90156        35.44954        -2.58379
C         45.15838        37.45233        -1.85072
C         43.93276        38.11471        -1.55736
C         45.18042        40.12367        -0.84521
C         43.94035        39.44404        -1.03468
C         45.19482        41.46294        -0.34610
C         43.96036        42.09870        -0.02190
C         45.21532        44.23426         0.42608
C         43.97472        43.42636         0.70150
C         45.19331        45.63750         0.61402
C         43.95184        46.33225         0.85089
C         45.18606        48.43644         1.12812
C         43.95473        47.72739         1.10726
C         45.22974        49.84416         1.65841
C         43.92561        50.58915         1.50597
C         45.20279        52.73759         1.41966
C         43.95684        52.03673         1.43924
C         45.22556        54.17630         1.31733
C         43.97821        54.89282         1.08428
C         45.29627        57.00470         0.75302
C         43.97408        56.28156         0.86717
C         45.21579        58.48935         1.02821
C         43.86299        59.15117         1.07489
C         45.11422        61.38161         1.10648
C         43.92387        60.65073         0.82328
C         45.14808        62.78373         1.00701
C         43.92178        63.48700         0.74938
C         45.16806        65.62834         0.41156
C         43.88595        64.90302         0.66678
C         45.12849        67.10257         0.69428
C         43.85953        67.78838         0.64840
C         45.08246        69.96026         1.02969
C         43.82571        69.21953         0.64390
C         45.08919        71.42607         0.65713
C         43.87559        72.09538         0.44350
C         45.09404        74.22465         0.21217
C         43.86909        73.53021         0.25277
C         46.34314        34.11882        -3.14174
C         47.60389        36.12512        -2.42795
C         46.38107        35.44992        -2.64237
C         47.63581        37.45383        -1.94244
C         46.39906        38.12564        -1.64409
C         47.64928        40.14844        -0.99139
C         46.41268        39.46351        -1.15763
C         47.66699        41.50364        -0.52616
C         46.43311        42.15479        -0.18828
C         47.64876        44.28871         0.13844
C         46.43272        43.56057         0.15779
C         47.63989        45.69635         0.26090
C         46.40310        46.38258         0.51442
C         47.59666        48.55216         0.60031
C         46.38926        47.79095         0.77309
C         47.62715        49.94539         0.83284
C         46.44469        50.62253         1.23208
C         47.69425        52.73587         1.40011
C         46.44542        52.02078         1.38134
C         47.67758        54.17386         1.84610
C         46.41464        54.88143         1.44501
C         47.68234        57.09733         1.47611
C         46.35869        56.37282         1.65108
C         47.65761        58.45842         1.29517
C         46.37499        59.17049         1.24138
C         47.63895        61.39979         1.58356
C         46.33483        60.63706         1.49743
C         47.63003        62.85988         1.35389
C         46.40025        63.53224         1.14104
C         47.60625        65.67523         0.91054
C         46.39755        64.93458         0.93074
C         47.57560        67.08245         0.69440
C         46.34465        67.78748         0.69755
C         47.59809        69.97622         1.09116
C         46.35433        69.28699         0.50376
C         47.57779        71.45058         0.72810
C         46.33340        72.12314         0.59773
C         47.55335        74.23946         0.21101
C         46.32861        73.54871         0.33914
C         48.85637        38.13994        -1.75216
C         50.10683        40.17542        -1.14822
C         48.88494        39.47861        -1.29557
C         50.13063        41.52946        -0.74282
C         48.90127        42.18591        -0.42495
C         50.13064        44.37612        -0.33235
C         48.96460        43.56356         0.17293
C         50.05461        45.76984        -0.34005
C         48.84143        46.43088         0.01740
C         50.05885        48.71379        -0.14197
C         48.74957        47.89216        -0.00885
C         50.06731        50.03912         0.45176
C         48.87748        50.67982         0.77433
C         50.15565        52.79529         1.17835
C         48.88913        52.07437         1.16768
C         50.14662        54.22505         1.31547
C         48.93041        54.93780         1.49519
C         50.16948        57.05134         1.41016
C         48.92825        56.34024         1.49282
C         50.13467        58.53039         1.71878
C         48.94294        59.22140         1.04408
C         50.13986        61.40503         1.83300
C         48.89505        60.67584         1.42194
C         50.11440        62.85198         1.38591
C         48.87824        63.54449         1.25388
C         50.06477        65.68956         0.91652
C         48.86835        64.97741         1.02306
C         50.09955        67.10027         0.69941
C         48.83441        67.81575         0.30442
C         50.02898        69.97855         0.53752
C         48.86275        69.28731         0.64337
C         50.04321        71.43635         0.53270
C         48.79377        72.13899         0.53342
C         50.01383        74.23901         0.05095
C         48.78948        73.56326         0.27260
C         51.35349        42.25306        -0.67640
C         52.58400        44.37477        -0.65985
C         51.37510        43.67213        -0.56510
C         52.60112        45.82230        -0.83481
C         51.25457        46.56637        -0.70834
C         52.53083        48.67123        -0.32226
C         51.33576        47.99190        -0.33533
C         52.52607        50.18485        -0.14457
C         51.40640        50.61941         0.81771
C         52.59298        52.82721         0.90317
C         51.35986        52.12143         0.95419
C         52.58972        54.21784         1.04009
C         51.37254        54.94130         1.18978
C         52.64479        57.11755         0.90950
C         51.36654        56.37300         1.24529
C         52.63977        58.57572         1.28311
C         51.42387        59.26694         1.43560
C         52.61949        61.38137         1.28375
C         51.41024        60.66920         1.46419
C         52.56755        62.81172         1.09645
C         51.34813        63.50205         1.13195
C         52.57221        65.68426         1.31823
C         51.36165        64.95354         0.72121
C         52.55491        67.16306         0.92550
C         51.30241        67.80356         0.67135
C         52.49713        70.01321         0.83854
C         51.31911        69.25228         0.21672
C         52.51242        71.45077         0.38990
C         51.25185        72.13438         0.32805
C         52.47955        74.21259        -0.17960
C         51.24737        73.55557         0.07342
C         53.82695        46.61384        -0.65590
C         55.03295        48.82321        -0.63982
C         53.78595        47.97481        -0.52736
C         55.08191        49.92866         0.42915
C         53.83662        50.78044         0.35441
C         55.14049        52.75081         1.17881
C         53.84968        52.07821         0.75277
C         55.14775        54.22802         0.84732
C         53.85921        54.96688         0.90042
C         55.16601        57.09466         1.28572
C         53.86047        56.36773         1.46290
C         55.15133        58.54398         1.67945
C         53.86670        59.27924         1.32952
C         55.13092        61.45766         1.54767
C         53.85671        60.67625         1.31512
C         55.14389        62.75803         0.74615
C         53.79458        63.50862         0.63167
C         54.79070        65.78605         0.30185
C         53.77698        64.98157         0.70964
C         55.02962        67.11229         0.98284
C         53.74642        67.87303         0.80629
C         55.00987        69.93386         0.43902
C         53.79994        69.28276         0.61662
C         54.99476        71.41430         0.39382
C         53.70397        72.11941         0.19789
C         54.93210        74.17867        -0.46767
C         53.71051        73.52641        -0.14495
C         56.34865        50.74044         0.33171
C         57.58985        52.84922         0.62546
C         56.39307        52.07549         0.66207
C         57.62552        54.25517         0.86347
C         56.40623        54.97802         1.03021
C         57.63637        57.13688         1.10591
C         56.37628        56.40308         1.14512
C         57.65596        58.53835         1.17577
C         56.41437        59.29010         1.32389
C         57.69311        61.38886         1.40065
C         56.40752        60.65485         1.35201
C         57.68596        62.89038         1.29005
C         56.41223        63.51531         0.82878
C         57.65202        65.66170         0.88258
C         56.57155        64.77658         0.33206
C         57.52760        67.10341         0.43692
C         56.30911        67.80981         0.54160
C         57.48623        69.90424        -0.00067
C         56.27352        69.21739         0.31953
C         57.49905        71.35364        -0.18343
C         56.26232        72.13495         0.05841
C         57.36952        74.14668        -0.84649
C         56.18419        73.52519        -0.45333
C         58.84246        54.98481         0.83688
C         60.08585        57.10422         0.81867
C         58.86811        56.39829         0.93464
C         60.12747        58.51819         0.83944
C         58.89999        59.24920         1.03937
C         60.13389        61.36696         0.81082
C         58.93745        60.65802         1.09017
C         60.13166        62.79007         0.61779
C         58.93155        63.56643         0.81524
C         60.00853        65.62688        -0.05624
C         58.92359        64.92986         0.55919
C         59.91230        66.99233        -0.29860
C         58.70164        67.74984        -0.02774
C         59.90909        69.84184        -0.59703
C         58.67775        69.15983        -0.23142
C         59.98095        71.33581        -0.36788
C         58.65129        72.03966        -0.48241
C         59.80629        74.15294        -1.09783
C         58.63937        73.47141        -0.79704
C         61.33597        59.23104         0.65578
C         62.55280        61.36433         0.30972
C         61.35655        60.63958         0.58894
C         62.53005        62.74281         0.06862
C         61.28314        63.43921         0.14048
C         62.47854        65.51516        -0.83444
C         61.20197        64.81291        -0.39314
C         62.36296        66.99216        -0.97907
C         60.99849        67.65285        -1.10499
C         62.30444        69.86468        -1.19716
C         61.05171        69.15575        -0.93828
C         62.32372        71.27215        -1.29422
C         61.01104        72.00732        -1.28072
C         62.25969        74.08550        -1.82793
C         61.16240        73.50542        -0.97179
C         63.74167        63.52165        -0.09313
C         64.97604        65.64593        -0.15533
C         63.75763        64.85682        -0.42069
C         65.30933        66.75266        -0.86511
C         63.41862        67.71274        -1.45267
C         64.77109        69.81543        -1.48579
C         63.51433        69.15046        -1.37799
C         64.72953        71.22404        -1.75538
C         63.49483        71.94039        -1.67464
C         64.60993        73.97839        -2.53031
C         63.43542        73.36246        -2.01938
C         66.33434        67.83165        -0.61067
C         67.19643        69.87819        -1.68987
C         66.06870        69.16511        -1.34444
C         67.15082        71.22532        -2.17832
C         65.90925        71.91591        -2.15693
C         67.03314        73.92197        -3.02015
C         65.84151        73.28960        -2.57440
C         68.31373        71.90025        -2.61050
C         68.24169        73.23197        -3.03282
O         54.49133        54.69111        -0.38969
O         40.57014        67.51627         1.91968
O         57.78400        62.27716         2.60683
O         41.45668        51.51183         2.88239
O         54.42676        62.81314        -0.50675
O         33.46159        72.08084        -1.96802
O         64.52318        67.03154        -1.99252
O         55.73280        65.32787        -0.63846
O         49.15910        48.52818        -1.27331
O         40.03976        49.00930         2.84064
O         37.52271        62.14347         0.89903
O         51.81126        46.26190        -2.01577
O         55.81778        72.01977         1.46922
O         61.63625        64.82399        -1.82062
O         40.76642        41.35648         1.27728
O         39.19605        64.91580         1.49770
O         36.08179        62.97654        -2.24411
O         46.85614        60.99532         2.81292
O         32.75809        57.07326         1.96283
O         30.02185        62.21616         1.08035
O         49.25114        43.34861         1.62449
H         48.47554        42.88054         2.00282
O         36.87556        60.31183        -2.23513
H         36.63506        61.15858        -2.68806
O         45.31223        65.55026        -1.08400
H         45.96798        66.23506        -1.34066
O         31.83358        63.97125         1.28639
H         31.38867        63.26384         1.81484
O         50.10946        61.42649         3.30724
H         49.96009        60.49021         3.59319
O         61.62781        73.72880         0.39133
H         61.18312        73.06489         0.97451
O         33.93105        73.08725         1.52063
H         34.06271        73.90721         2.04193
O         48.83110        67.80858        -1.19890
H         48.97279        66.87757        -1.47971
O         34.22552        69.48604        -2.73492
H         34.08910        70.45464        -2.88057
O         24.00769        69.18744        -2.34351
H         24.83337        68.82204        -2.72809
O         41.86975        60.69869        -1.60202
H         42.65517        60.12055        -1.76721
O         45.94472        56.55971         3.03391
H         46.56332        56.02950         3.58730
O         57.53506        65.68129         2.35061
H         57.66212        64.76598         2.68686
O         55.09739        61.87657         2.94212
H         55.23647        61.07482         3.49196
O         45.40399        49.70524         3.13105
H         44.58714        49.28691         3.48038
O         47.64427        54.16244         3.33480
H         46.97137        53.49794         3.60064
O         55.19383        52.69981         2.63920
H         55.31235        51.75820         2.89121
O         52.77583        57.08015        -0.53543
H         52.00045        57.53502        -0.92606
O         55.14828        58.54677         3.16343
H         54.48131        57.86882         3.43763
O         43.33333        58.96905         2.41586
H         44.00819        59.27622         3.05777
O         35.49254        54.04168        -1.47510
H         35.41581        54.95426        -1.83001
O         60.63450        67.41334        -2.51349
H         60.78108        66.44845        -2.67327
O         52.26072        50.76455        -1.43965
H         53.04400        50.57604        -2.00402
O         46.38490        69.50149        -0.92903
H         47.19830        69.06681        -1.27900
O         28.06701        71.31356        -1.90431
H         27.99549        72.24045        -2.21746
O         52.54896        65.58755         2.74750
H         53.35683        66.05048         3.07451
O         55.11224        66.84928         2.42275
H         56.00511        66.45226         2.61365
O         36.39160        59.57671         1.29542
H         36.63881        58.82835         1.89027
O         52.25218        70.01133         2.27382
H         53.02085        70.43219         2.71351
O         67.63746        67.33061        -0.93614
H         67.61960        67.01314        -1.86253
O         49.89836        58.63390         3.15821
H         50.57807        58.09610         3.61691
O         40.41354        56.68157        -1.51709
H         39.54342        56.98646        -1.88270
O         29.40422        63.06202        -2.38554
H         29.78430        63.86142        -2.83473
O         37.89295        57.89720        -1.67121
H         37.84406        58.71114        -2.23574
O         49.21090        59.14742        -0.40104
H         48.37474        59.33768        -0.87631
O         30.38521        65.55175        -2.78905
H         29.79787        66.29019        -3.09291
O         43.41938        58.44570        -1.21011
H         42.81539        57.90431        -1.76702
O         53.62835        56.23547         2.90875
H         54.26221        55.57092         3.25698
O         37.83790        57.53984         2.00272
H         37.98747        56.71426         2.53634
O         35.38820        65.56438        -2.76108
H         35.56739        64.62191        -3.00154
O         37.43750        48.29834         2.84510
H         38.27343        48.60814         3.27599
O         32.66025        54.42149         2.14241
H         32.68306        55.42629         2.29245
O         54.99214        49.48254        -1.91835
H         54.90174        48.79820        -2.61345
O         60.49108        71.93897        -2.63387
H         60.44771        70.99486        -2.89710
O         45.08631        69.87901         2.48262
H         44.26702        70.30376         2.81164
O         51.79073        50.05388         2.11748
H         51.14643        50.37181         2.78542
O         38.02557        52.63040        -1.06922
H         37.22578        53.03177        -1.49211
O         27.85235        69.67779         1.39664
H         28.40786        70.38591         1.80477
O         28.93714        67.99580        -2.61494
H         29.39498        68.82831        -2.86527
O         51.57726        64.98314        -0.73120
H         51.08435        64.23701        -1.13157
O         44.04511        43.08670         2.13764
H         43.24030        42.56759         2.35448
O         55.05433        49.29046         1.74654
H         54.11273        49.16608         1.99899
O         51.48640        69.24874        -1.22186
H         50.68853        68.80981        -1.59817
O         38.89967        55.15327         2.54226
H         39.80137        55.35356         2.87671
O         29.00704        72.02941         1.59749
H         29.78132        72.51909         1.94700
O         45.73789        56.85331        -0.62506
H         45.07558        57.32965        -1.18109
O         47.57908        69.85015         2.53592
H         48.40469        70.24745         2.88307
O         35.24044        58.16007        -1.90745
H         36.10715        57.77474        -2.17819
O         39.37282        63.69279        -1.94000
H         39.81231        62.89255        -2.29870
O         60.40468        71.47983         1.03088
H         59.65962        71.18508         1.59720
H         22.85226        75.03931         0.68666
H         25.29971        75.16902         0.27562
H         27.75352        75.26333        -0.27109
H         30.25605        75.32037        -0.45994
H         32.73286        75.30956        -0.14027
H         35.27718        75.30910        -0.05856
H         37.73605        75.29495        -0.12714
H         40.18137        75.28947        -0.06301
H         42.62815        75.29723        -0.00086
H         45.09089        75.31340         0.05330
H         47.54070        75.32289         0.01904
H         49.99789        75.31859        -0.16146
H         52.47226        75.28887        -0.40897
H         54.89505        75.23464        -0.77620
H         57.34562        75.19391        -1.18384
H         59.74921        75.22784        -1.33115
H         62.23257        75.15412        -2.09340
H         64.57330        75.03626        -2.83090
H         66.99192        74.96889        -3.35337
H         21.99452        69.23151        -0.27131
H         20.78490        71.24878         0.44294
H         20.76568        73.69980         0.85612
H         24.53022        64.98014        -0.23522
H         23.26159        67.09750        -0.46920
H         26.94542        60.72993        -0.51807
H         25.75173        62.89157        -0.23922
H         29.46749        56.53894        -0.38193
H         28.25772        58.59233        -0.60228
H         31.88587        52.17721         0.59896
H         30.72476        54.36277        -0.23951
H         34.33697        47.94193         0.35379
H         33.09268        50.04986         0.55760
H         36.83685        43.79053        -0.11119
H         35.60281        45.87656         0.10085
H         39.30558        39.64331        -1.15993
H         38.03649        41.75883        -0.54118
H         41.73350        35.61273        -2.49125
H         40.51774        37.61615        -1.73773
H         45.11539        32.44710        -3.74301
H         42.96339        33.60099        -3.26267
H         47.28754        33.60022        -3.36009
H         48.55087        35.61169        -2.65188
H         49.80351        37.62992        -1.98205
H         51.05139        39.66430        -1.38540
H         52.29715        41.72160        -0.86922
H         53.53716        43.82503        -0.64824
H         54.79666        46.09123        -0.67461
H         55.95061        48.17460        -0.57402
H         57.26478        50.22930        -0.00344
H         58.53250        52.34088         0.37056
H         59.78886        54.44533         0.68326
H         61.02000        56.54175         0.67233
H         62.27123        58.67061         0.50803
H         63.50337        60.81545         0.23457
H         64.69116        63.03081         0.17059
H         65.61523        65.32054         0.67940
H         66.35305        68.06020         0.49071
H         68.18117        69.40227        -1.56392
H         69.27682        71.37026        -2.61824
H         69.15374        73.74102        -3.37512
