         344
 CSIRO Nanostructure Databank - Neutral Graphene Oxide Data Set
C          1.42634         3.50740         1.50293
C          0.26600         4.19175         1.82972
C          1.37819         6.33228         1.43038
C          0.24110         5.59169         1.78781
C          1.34979         7.78928         1.39540
C          0.19772         8.53687         1.52976
C          1.26139        10.64657         0.86955
C          0.14920         9.93660         1.24168
C          1.19429        12.00206         0.17775
C         -0.00641        12.82804         0.54168
C          1.20534        14.96583         0.39377
C          0.01392        14.19539         0.52627
C          1.19016        16.38859         0.26100
C         -0.02795        17.13204         0.38187
C          1.14234        19.25069         0.08760
C         -0.04693        18.50449         0.31150
C          1.13956        20.67935        -0.02708
C         -0.10329        21.44994        -0.07035
C          1.15256        23.57877         0.20445
C         -0.12151        22.79650        -0.01518
C          1.15202        25.01312        -0.31666
C         -0.02531        25.77894        -0.39970
C          1.18541        27.79892        -1.00654
C         -0.01107        27.14586        -0.74282
C          1.28680        29.20929        -1.32088
C          3.78311         3.52278         0.78220
C          2.58812         4.22225         1.12791
C          3.78906         6.33440         0.69452
C          2.58556         5.64251         1.09739
C          3.81414         7.75780         0.72364
C          2.63104         8.48599         1.21842
C          3.74828        10.64734         0.35570
C          2.57428        10.00694         0.96938
C          3.69057        12.08007         0.16000
C          2.49070        12.77248         0.28093
C          3.64928        14.97527        -0.09118
C          2.51909        14.25708         0.58262
C          3.63610        16.38299        -0.23750
C          2.39209        17.10908         0.00541
C          3.57492        19.25459        -0.31382
C          2.37458        18.53468        -0.08573
C          3.59518        20.66250        -0.20337
C          2.35160        21.36382        -0.11965
C          3.62405        23.54717        -0.13919
C          2.33157        22.83466        -0.43343
C          3.64910        24.91143        -0.34677
C          2.39695        25.60530        -0.60156
C          3.73119        27.76850        -0.81647
C          2.42662        27.01439        -0.98751
C          3.61904        29.23546        -0.46504
C          2.45010        29.88937        -1.15883
C          6.07356         3.21926        -0.00045
C          4.92695         4.15849         0.35788
C          6.07301         6.35707        -0.19534
C          4.94472         5.60470         0.26376
C          6.08815         7.75713        -0.15195
C          4.94897         8.47975         0.29523
C          6.14473        10.64408        -0.15853
C          4.92438         9.93469         0.16881
C          6.11983        12.08956        -0.20682
C          4.91891        12.77658        -0.10580
C          6.10673        14.98585        -0.32625
C          4.82172        14.19602        -0.61840
C          6.06301        16.37461        -0.99906
C          4.79729        17.09113        -0.60832
C          6.09151        19.23292        -0.31529
C          4.81551        18.57402        -0.81439
C          6.07316        20.64394        -0.06317
C          4.84354        21.35958        -0.10985
C          6.11933        23.51836         0.20386
C          4.81356        22.78935         0.37700
C          6.11804        24.93175         0.05370
C          4.90190        25.64433        -0.22325
C          6.13644        27.78046        -0.21323
C          4.93612        27.04232        -0.35809
C          6.11092        29.22559        -0.41379
C          4.95271        29.90924        -0.62687
C          8.53269         3.46282        -0.43988
C          7.44399         3.74820         0.32257
C          8.58472         6.36599        -0.55352
C          7.24466         5.79817        -0.95942
C          8.57946         7.77018        -0.53220
C          7.26664         8.48851        -0.78189
C          8.57359        10.65905        -0.52836
C          7.32560         9.95569        -0.42969
C          8.59750        12.07167        -0.55102
C          7.35856        12.81196        -0.47964
C          8.60527        14.91032        -0.86942
C          7.35437        14.18657        -0.62826
C          8.58777        16.42825        -0.91251
C          7.32761        17.13889        -0.67076
C          8.55815        19.14196         0.09766
C          7.30725        18.49241        -0.30563
C          8.48463        20.54305         0.56658
C          7.27871        21.33782         0.28916
C          8.57082        23.47044         0.50743
C          7.33160        22.77216         0.36618
C          8.55734        24.94897         0.55018
C          7.33340        25.67365         0.15762
C          8.62456        27.80088        -0.03764
C          7.35517        27.07898         0.02940
C          8.64555        29.18002        -0.35625
C          7.39497        30.01683        -0.31416
C         10.98776         3.49214        -0.11924
C          9.81599         4.16824        -0.26542
C         11.01077         6.35411        -0.25509
C          9.78508         5.63834        -0.32459
C         11.02569         7.77329        -0.40120
C          9.79625         8.49546        -0.47271
C         11.04803        10.62421        -0.52883
C          9.81030         9.92884        -0.53657
C         11.07907        12.05345        -0.53334
C          9.84284        12.78463        -0.58301
C         11.08947        14.92255        -0.50853
C          9.86843        14.19217        -0.65504
C         11.08669        16.32587        -0.39252
C          9.89566        17.19053        -0.77930
C         11.02847        19.16101         0.24544
C          9.76836        18.47854         0.01556
C         11.04017        20.53904         0.48661
C          9.82434        21.30614         0.73480
C         11.04202        23.48596         0.54408
C          9.83528        22.79687         0.58887
C         11.19208        24.98573         0.68424
C          9.86179        25.71967         0.56081
C         11.07742        27.75198        -0.25381
C          9.85622        27.11170         0.06734
C         11.07188        29.11673        -0.61411
C          9.85860        29.81652        -0.62684
C         13.53169         3.46129        -0.03386
C         12.25722         4.20597         0.26108
C         13.45267         6.30324        -0.43408
C         12.26260         5.64319        -0.19931
C         13.49396         7.73898        -0.50441
C         12.26664         8.47110        -0.45884
C         13.52098        10.58854        -0.52109
C         12.28113         9.89457        -0.51221
C         13.54424        12.01381        -0.48461
C         12.31446        12.74916        -0.48985
C         13.56540        14.86476        -0.32284
C         12.33879        14.18501        -0.42378
C         13.58649        16.31233        -0.17717
C         12.30340        17.03414        -0.15708
C         13.56195        19.15751        -0.03957
C         12.26059        18.41656         0.07259
C         13.53715        20.53939         0.61152
C         12.28344        21.32196         0.18101
C         13.49114        23.41971        -0.01104
C         12.34171        22.75506         0.73804
C         13.54587        24.82126        -0.29508
C         12.34921        25.59611        -0.10521
C         13.50445        27.65078        -0.76923
C         12.31847        26.98135        -0.34486
C         13.60144        29.10581        -0.76186
C         12.32200        29.86735        -1.01937
C         15.95951         3.39882        -0.40436
C         14.68629         4.08980        -0.37753
C         15.96787         6.25686        -0.58057
C         14.67926         5.52695        -0.84374
C         15.97667         7.66389        -0.49884
C         14.73278         8.41924        -0.51900
C         15.97684        10.55033        -0.38985
C         14.75351         9.85248        -0.49379
C         16.02029        11.97383        -0.37517
C         14.78823        12.70344        -0.42204
C         16.05302        14.79022        -0.23991
C         14.80748        14.12768        -0.32672
C         16.08220        16.22687         0.18555
C         14.78877        16.97183        -0.01413
C         16.03526        19.20696         0.10792
C         14.79453        18.40794         0.46327
C         16.02690        20.59990        -0.02052
C         14.76165        21.27537         0.10437
C         16.32692        23.56650        -0.77604
C         14.49167        22.53621        -0.45455
C         16.13968        24.95329        -0.57378
C         14.76717        25.48920        -0.70510
C         16.34977        27.93102        -0.48768
C         14.63152        26.85139        -1.02719
C         16.00403        29.22419        -0.01256
C         14.73384        29.81042        -0.42095
C         18.42314         3.37575        -0.40254
C         17.15006         4.07353        -0.51958
C         18.41227         6.22612        -0.56789
C         17.17900         5.53741        -0.58222
C         18.44085         7.63002        -0.39699
C         17.21376         8.33211        -0.33345
C         18.52420        10.50201        -0.10089
C         17.20816         9.78581        -0.13085
C         18.58131        11.95821        -0.51405
C         17.26257        12.68178        -0.35117
C         18.59223        14.81443        -0.52349
C         17.27580        14.08024        -0.30337
C         18.59073        16.28628        -0.18650
C         17.30331        16.99186        -0.29451
C         18.53059        19.17322         0.33083
C         17.28622        18.48466        -0.16891
C         18.51254        20.65902         0.05044
C         17.31387        21.33096        -0.16619
C         18.52089        23.50591         0.18838
C         17.37983        22.78585        -0.28609
C         18.44000        24.92820         0.35195
C         17.27290        25.66049        -0.06385
C         18.22053        27.71787         1.00897
C         17.27315        27.09061         0.14784
C         18.03190        29.09354         1.36387
C         16.87681        29.80177         0.91724
C         19.60379         4.02066        -0.50075
C         20.91008         6.17977        -0.42352
C         19.67579         5.47183        -0.90658
C         20.92457         7.51182        -0.21973
C         19.72282         8.33340        -0.30174
C         20.99707        10.50163        -0.22196
C         19.77368         9.71739        -0.24333
C         21.00319        11.83679         0.00711
C         19.73182        12.62022         0.28028
C         20.97418        14.83844         0.16289
C         19.82044        14.10344        -0.01261
C         21.00540        16.24584         0.02969
C         19.80373        16.99381        -0.09006
C         20.96822        19.21752        -0.03239
C         19.81880        18.46040        -0.01493
C         20.94963        20.63092         0.16910
C         19.76505        21.36278         0.21362
C         20.82099        23.52208         0.96889
C         19.72866        22.80046         0.45712
C         20.69820        24.87611         1.28068
C         19.52323        25.60180         1.00823
C         20.30537        27.65342         2.24798
C         19.37158        26.99208         1.43616
C         20.10559        28.98986         2.63472
C         18.99643        29.70451         2.20875
O          9.05924        20.82160         1.88550
O          9.10940        25.54781         1.81812
O         17.83740        10.23230         1.15075
O         15.32313        22.93809        -1.51107
O         17.22980        17.83901        -1.49551
O          7.06928         5.25567        -2.05387
O         15.72652        27.47040        -1.65771
O          8.58552        15.66581        -2.20613
O          3.31933        27.37355        -2.13963
O          2.90640         9.44860         2.28711
O         13.76215        19.34219        -1.47606
H         13.72298        18.46048        -1.90558
O         14.78255        18.30532         1.90656
H         15.57410        17.77359         2.16563
O          1.04418        11.67437        -1.25452
H          1.14618        12.50865        -1.76047
O         19.76319         5.46844        -2.37772
H         18.92842         5.08027        -2.71671
O         12.22021         4.28335         1.74108
H         11.45267         4.84362         1.98281
O          4.79991        18.77383        -2.28963
H          5.33460        18.03951        -2.68014
O          6.02677        16.24195        -2.46009
H          6.94552        15.94857        -2.72245
O         10.23277        17.66378        -2.12866
H          9.95657        16.94365        -2.74316
O         18.91793        11.98446        -1.91950
H         18.88224        12.93013        -2.21613
O         13.51859        20.34697         2.02223
H         13.33586        21.21225         2.45869
O         19.39913        12.49149         1.68840
H         20.13167        12.87707         2.21168
O         18.40619        19.04778         1.79628
H         19.18109        19.49985         2.19301
O         12.25036        21.50739        -1.26055
H         12.61096        20.68904        -1.68731
O         12.63057        22.77027         2.16184
H         12.42211        23.69576         2.46665
O          2.11434        22.92507        -1.87619
H          2.78115        22.36054        -2.32126
O          7.43400        31.05714        -1.29789
H          7.45477        30.64090        -2.18372
O          7.53224         4.46166         1.48727
H          8.46450         4.72497         1.63043
O         12.23497        30.17635        -2.42846
H         12.31068        29.33662        -2.92678
O         11.61738        25.20604         2.08798
H         10.77370        25.25792         2.60358
O          3.31132        29.25687         0.97424
H          3.34796        30.18934         1.27408
O          6.15278        15.26257         1.09756
H          5.89739        14.44869         1.58153
O          1.38789        23.64827         1.63117
H          0.61597        24.07893         2.05213
O          5.99335         2.85358        -1.37920
H          6.21876         3.65207        -1.91740
O         14.58843         5.45744        -2.31502
H         13.75104         4.99666        -2.53614
O          4.63610        14.02626        -2.05458
H          4.92718        14.86323        -2.49934
O          7.04097         8.45803        -2.23080
H          7.02251         7.51788        -2.51648
O         16.32166        16.14815         1.65073
H         15.66718        15.51849         2.02348
O         18.72697        14.77836        -2.02399
H         19.46822        15.37908        -2.25848
O          4.60580        22.68683         1.84510
H          5.42959        22.31399         2.22741
O          2.80597        14.30859         2.05404
H          1.99276        14.01207         2.51704
H          1.45403         2.40878         1.52464
H         -0.63907         3.64059         2.12009
H         -0.69005         6.11019         2.05283
H         -0.76163         8.03629         1.72103
H         -0.84472        10.40429         1.20497
H         -0.97674        12.31906         0.62620
H         -0.94889        14.71843         0.62553
H         -0.97217        16.60574         0.57354
H         -1.00280        19.02820         0.44772
H         -1.05444        20.90685        -0.16820
H         -1.08741        23.32393        -0.03086
H         -0.99439        25.31262        -0.17301
H         -0.95810        27.70377        -0.77078
H          0.38564        29.72843        -1.68244
H          3.77393         2.42424         0.85211
H          2.50349        30.96342        -1.39367
H          5.91672         2.27414         0.58842
H          4.99055        30.99990        -0.77566
H          8.39173         2.82758        -1.32649
H          7.38531        30.53922         0.68586
H         10.97806         2.39300        -0.07503
H          9.85141        30.88552        -0.88422
H         13.55658         2.39412         0.23974
H         12.34929        30.85313        -0.48731
H         15.96571         2.31058        -0.23536
H         14.63254        30.90201        -0.30274
H         18.39527         2.29533        -0.19176
H         16.67889        30.80935         1.31150
H         20.54814         3.46358        -0.40298
H         21.83753         5.59492        -0.32799
H         21.86685         8.00071         0.06833
H         21.95566         9.98751        -0.38897
H         21.96935        12.36396         0.02994
H         21.90972        14.33238         0.44644
H         21.96621        16.76176         0.15366
H         21.94712        18.74076        -0.18692
H         21.91487        21.14997         0.24840
H         21.77013        23.01017         1.18108
H         21.55369        25.38178         1.74909
H         21.20740        27.13370         2.59866
H         20.85021        29.47561         3.28101
H         18.86297        30.75345         2.50971
