         598
 CSIRO Nanostructure Databank - Neutral Graphene Oxide Data Set
C         22.95097        69.77988         0.33762
C         22.92314        71.19569         0.30519
C         21.70131        71.91667         0.39198
C         22.87486        74.02970         0.16318
C         21.69025        73.30899         0.32172
C         25.45055        65.48936        -0.00738
C         25.40206        66.93014        -0.01003
C         24.20147        67.64533         0.16466
C         25.38746        69.81358         0.06542
C         24.16373        69.07013         0.19695
C         25.39185        71.24711         0.08911
C         24.14537        71.93129         0.17147
C         25.33803        74.06593        -0.09752
C         24.12276        73.35740         0.08979
C         27.97011        61.22029        -0.22795
C         27.88290        62.63452        -0.31818
C         26.70770        63.34517        -0.08411
C         27.89603        65.51656        -0.27346
C         26.64011        64.78318        -0.15628
C         27.87025        66.97222        -0.29818
C         26.61469        67.66514        -0.18745
C         27.78899        69.83771        -0.34095
C         26.59387        69.09518        -0.16042
C         27.82180        71.22414        -0.08876
C         26.61807        71.98795         0.03659
C         27.74891        74.26554        -0.39818
C         26.59911        73.43834        -0.09504
C         30.39690        56.94263        -0.25285
C         30.34523        58.32309        -0.52316
C         29.18610        59.08669        -0.31336
C         30.40506        61.20232        -0.77832
C         29.15384        60.49796        -0.46837
C         30.40982        62.65484        -0.71204
C         29.08389        63.38465        -0.84983
C         30.35135        65.53174        -0.24275
C         29.08609        64.82309        -0.39995
C         30.33394        67.04187        -0.41882
C         29.03532        67.68930        -0.57349
C         30.32830        69.92956        -0.80267
C         29.01329        69.14707        -0.75536
C         30.32386        71.32193        -0.31044
C         29.10574        71.82175         0.12976
C         30.33512        74.32897        -0.51454
C         29.07152        73.93247        -0.04791
C         32.83470        52.66965         0.14340
C         32.82235        54.04942        -0.04359
C         31.60056        54.80203        -0.06488
C         32.86086        56.82616        -0.83604
C         31.58185        56.16381        -0.35115
C         32.84301        58.32733        -0.50964
C         31.57217        58.98761        -1.11222
C         32.83259        61.19058        -1.29721
C         31.57964        60.49375        -0.94495
C         32.85734        62.69632        -1.14553
C         31.59989        63.34372        -0.71421
C         32.91145        65.53200        -0.61157
C         31.64651        64.78101        -0.37801
C         32.84987        66.97700        -0.99762
C         31.57071        67.74237        -0.90449
C         32.77051        69.91749        -0.49487
C         31.61291        69.21760        -0.72216
C         32.77915        71.37605        -0.32728
C         31.53668        72.09080        -0.25560
C         32.78803        74.19703        -0.41916
C         31.53835        73.54467        -0.32075
C         35.18563        48.31771         1.00815
C         35.21376        49.73301         0.61406
C         33.99686        50.52455         0.48249
C         35.31885        52.59385         0.28454
C         34.04262        51.89558         0.27747
C         35.32891        54.01097        -0.08976
C         34.08060        54.77526        -0.15437
C         35.34706        56.89719        -0.16772
C         34.11910        56.14523        -0.33768
C         35.38780        58.32529        -0.44397
C         34.14414        58.97099        -0.96070
C         35.43111        61.20665        -1.20311
C         34.13746        60.43286        -1.29944
C         35.38205        62.68144        -0.98217
C         34.16370        63.40332        -0.99892
C         35.37771        65.53409        -0.71798
C         34.17396        64.80516        -0.89084
C         35.38334        66.99562        -0.64817
C         34.13662        67.73901        -0.95673
C         35.28757        69.86139        -0.10059
C         34.07096        69.21706        -0.65744
C         35.27003        71.37424        -0.00519
C         33.99871        72.07681        -0.25669
C         35.28047        74.18013        -0.31015
C         34.02744        73.50828        -0.32817
C         37.72595        44.09682         0.84996
C         37.69495        45.49976         1.07854
C         36.45484        46.21298         1.13100
C         37.60496        48.37723         1.59693
C         36.37227        47.61932         1.24637
C         37.59016        49.90415         1.63902
C         36.52703        50.50467         0.74685
C         37.73240        52.71299         0.91540
C         36.50156        51.97743         0.65666
C         37.78126        54.09657         0.72460
C         36.63274        54.79323         0.12290
C         37.68618        56.97812         0.71049
C         36.51448        56.24419         0.23619
C         37.73156        58.47314         0.37770
C         36.56940        59.03307        -0.34364
C         37.88100        61.17903        -0.34768
C         36.68264        60.43667        -0.79776
C         37.78974        62.63101        -0.27214
C         36.57062        63.37874        -0.67756
C         37.80292        65.50991        -0.19961
C         36.56487        64.78635        -0.55315
C         37.80562        67.01159        -0.21488
C         36.54236        67.72499        -0.44555
C         37.75288        69.89525        -0.19924
C         36.57577        69.17225        -0.30006
C         37.77228        71.35239        -0.10181
C         36.55045        72.07652        -0.11405
C         37.77677        74.18880        -0.24899
C         36.53727        73.50174        -0.23330
C         40.25829        39.87992         0.06844
C         40.17855        41.24087         0.43676
C         38.98289        41.95721         0.58209
C         40.15469        44.10226         1.03224
C         38.94567        43.38358         0.81174
C         40.17089        45.51378         1.19095
C         38.92655        46.20688         1.18779
C         40.13898        48.43391         1.23909
C         38.90780        47.64370         1.51661
C         40.15236        49.88766         1.46235
C         38.93509        50.59457         1.44558
C         40.16725        52.73330         1.45198
C         38.93601        52.00407         1.30414
C         40.15045        54.14488         1.41864
C         38.96470        54.86529         1.04298
C         40.12403        57.12522         1.40829
C         38.95254        56.26700         0.95993
C         40.21864        58.46944         0.68939
C         39.06730        59.12637         0.29378
C         40.34580        61.25704        -0.01610
C         39.07962        60.53957        -0.03401
C         40.36472        62.62704        -0.25087
C         39.11320        63.37179        -0.16635
C         40.36963        65.58172        -0.45589
C         39.09164        64.81551        -0.50715
C         40.29147        67.02634        -0.11278
C         39.05857        67.73749        -0.37322
C         40.32144        69.94817        -0.35599
C         39.03425        69.19269        -0.43470
C         40.29623        71.35005         0.20113
C         38.99976        72.06929        -0.08744
C         40.26458        74.19631        -0.11490
C         39.01415        73.49678        -0.14494
C         42.44977        36.72163        -2.80099
C         42.58870        37.32918        -1.52370
C         41.45867        38.00518        -0.92128
C         42.74399        39.80399         0.27629
C         41.48740        39.17385        -0.14176
C         42.74577        41.27236         0.48164
C         41.45035        41.99859         0.55668
C         42.66769        44.02269         1.61260
C         41.39883        43.33222         1.22531
C         42.64839        45.51858         1.72463
C         41.39662        46.21994         1.43734
C         42.69529        48.43234         1.41180
C         41.44660        47.66525         1.23222
C         42.66056        49.85423         1.49433
C         41.40509        50.57117         1.50119
C         42.64938        52.66626         1.71320
C         41.40725        51.99086         1.59515
C         42.64747        54.13192         1.84224
C         41.36705        54.91363         1.73672
C         42.62338        57.03586         1.34175
C         41.42951        56.36660         1.42408
C         42.67724        58.42904         0.93973
C         41.51484        59.12447         0.59629
C         42.80203        61.20764         0.18335
C         41.58929        60.52455         0.19366
C         42.89195        62.64216        -0.14591
C         41.61239        63.38818        -0.42210
C         42.84547        65.56750        -0.29601
C         41.63880        64.86098        -0.29066
C         42.83787        66.99391        -0.39388
C         41.64346        67.77082        -0.12953
C         42.77734        69.95408        -0.36902
C         41.61921        69.23361        -0.27761
C         42.77219        71.40945        -0.29683
C         41.55981        72.10449        -0.14722
C         42.76851        74.22446        -0.15224
C         41.52788        73.53430        -0.13533
C         44.59334        35.85128        -5.73553
C         43.51897        35.73795        -4.85767
C         44.79403        36.13426        -2.79349
C         43.55408        36.14039        -3.47247
C         45.03621        36.86203        -1.60930
C         43.87731        37.33241        -0.92393
C         45.23582        39.86598         0.35983
C         43.95352        39.16776         0.38899
C         45.25149        41.26669         0.53295
C         44.00228        41.89432         1.01432
C         45.22401        44.12837         1.14393
C         44.00639        43.32847         1.44613
C         45.16770        45.51151         1.13747
C         43.96066        46.27422         1.52408
C         45.12677        48.48037         1.27060
C         43.91949        47.74723         1.33409
C         45.14531        49.86730         1.51670
C         43.89350        50.56708         1.63040
C         45.14498        52.71362         1.91310
C         43.88271        51.98510         1.77059
C         45.17173        54.07732         1.83333
C         43.92856        54.81739         1.53088
C         45.16394        57.05485         1.78354
C         43.92742        56.29711         1.38307
C         45.21678        58.48887         1.38538
C         44.00637        59.03924         0.70102
C         45.35780        61.23033         0.55031
C         44.08135        60.49983         0.34653
C         45.36065        62.65940         0.20518
C         44.06257        63.44454         0.41970
C         45.31323        65.53493        -0.15893
C         44.12217        64.86194        -0.14283
C         45.36270        66.95813        -0.59220
C         44.06197        67.71254        -0.72775
C         45.28978        69.98506        -0.38161
C         44.04858        69.25339        -0.64144
C         45.27639        71.39532        -0.31276
C         44.01629        72.10722        -0.32555
C         45.24905        74.20597        -0.01014
C         44.00438        73.53141        -0.18672
C         45.89609        36.32792        -5.44612
C         47.38128        37.17490        -3.55802
C         46.42281        36.32522        -4.13843
C         47.45339        37.49541        -2.16260
C         46.36543        37.31243        -1.27068
C         47.59979        39.95507        -0.30013
C         46.44776        39.21813         0.02360
C         47.59091        41.35150        -0.08518
C         46.43502        42.01993         0.40059
C         47.61879        44.17867         0.58654
C         46.43081        43.44967         0.69965
C         47.65403        45.59740         0.75305
C         46.35728        46.28080         0.73288
C         47.64806        48.47731         1.07357
C         46.36509        47.80328         0.86281
C         47.61811        49.84192         1.49720
C         46.41168        50.53615         1.66388
C         47.69195        52.68340         1.97738
C         46.40380        51.93840         2.25304
C         47.72290        54.11691         1.73369
C         46.43044        54.85801         1.67514
C         47.72480        57.04968         1.80703
C         46.44383        56.29990         2.15831
C         47.69113        58.46765         1.59120
C         46.52567        59.18276         1.27683
C         47.78600        61.36361         1.06642
C         46.54201        60.59377         0.93113
C         47.82133        62.75547         0.90450
C         46.62809        63.43928         0.37949
C         47.81567        65.59560         0.50730
C         46.46252        64.92677         0.64824
C         47.85183        67.04492         0.11709
C         46.60095        67.75591        -0.34101
C         47.74230        69.94845         0.01644
C         46.45945        69.19634         0.14098
C         47.73384        71.32869        -0.22011
C         46.52076        72.12520        -0.23700
C         47.65331        74.36815         0.36709
C         46.49638        73.55645        -0.02563
C         48.66087        38.20083        -1.74098
C         50.02732        40.02690        -0.85998
C         48.77277        39.32955        -0.93189
C         50.10877        41.38338        -0.51920
C         48.82175        42.10530        -0.35749
C         50.14604        44.14970         0.39481
C         48.83766        43.54256         0.04797
C         50.13553        45.61324         0.74346
C         48.84510        46.33776         0.76178
C         50.13121        48.45588         1.04307
C         48.85821        47.75644         0.94812
C         50.16107        49.81072         1.38747
C         48.91650        50.46970         1.83812
C         50.27126        52.71713         2.20430
C         48.93849        51.96956         2.17357
C         50.17953        54.18295         1.80065
C         48.98350        54.88615         1.85985
C         50.22148        57.02200         1.79497
C         48.95324        56.33451         1.82865
C         50.26641        58.49414         1.96787
C         48.93887        59.24060         1.78749
C         50.21018        61.34052         1.52219
C         48.99574        60.66408         1.43378
C         50.19900        62.81355         1.66066
C         48.96951        63.55652         1.30620
C         50.15472        65.78275         1.49472
C         48.95631        64.94869         1.23439
C         50.12573        67.30612         1.30365
C         48.98826        67.87231         0.49860
C         50.18003        70.01101         0.50292
C         48.96215        69.25816         0.31019
C         50.18073        71.39290         0.21063
C         49.02086        71.93680        -0.33858
C         50.23983        74.55397         0.44705
C         48.96113        74.10168         0.00817
C         51.31253        42.12950        -0.49386
C         52.54795        44.26181        -0.13203
C         51.37720        43.50100        -0.12032
C         52.58072        45.66265         0.19871
C         51.37947        46.36795         0.55965
C         52.60345        48.48335         0.73845
C         51.36674        47.75251         0.76144
C         52.59328        49.86594         0.93584
C         51.38198        50.57158         1.29050
C         52.57726        52.71587         1.21984
C         51.40346        51.96385         1.53051
C         52.58476        54.15384         1.25356
C         51.40258        54.88267         1.56613
C         52.71229        57.02304         1.55363
C         51.40295        56.31338         1.60835
C         52.77500        58.51887         1.60727
C         51.50617        59.26344         1.72671
C         52.75619        61.40982         1.52252
C         51.47093        60.64480         1.63026
C         52.74493        62.85162         1.19449
C         51.53060        63.57672         1.59085
C         52.69103        65.73890         0.91250
C         51.50900        65.06849         1.49423
C         52.64254        67.17932         0.70920
C         51.44680        67.91492         0.86266
C         52.63935        70.05114         0.43474
C         51.42374        69.31588         0.66094
C         52.64752        71.47005         0.38493
C         51.36486        72.22416         0.66121
C         52.65977        74.33639         0.32330
C         51.40474        73.72814         0.34738
C         53.77797        46.39057         0.11794
C         55.07181        48.44793         0.41693
C         53.84080        47.77944         0.43356
C         55.22811        49.82531         0.85871
C         53.87081        50.59779         0.98440
C         54.79870        52.80199         0.22197
C         53.74042        52.05058         0.77282
C         54.94464        54.15785         0.45762
C         53.79534        54.84632         0.92964
C         55.09565        57.02098         0.54716
C         53.77260        56.32358         0.74850
C         55.05084        58.48190         0.54029
C         53.96665        59.18416         1.02537
C         55.12586        61.38392         0.50075
C         54.02879        60.65075         1.15446
C         55.07016        62.78730         0.33031
C         53.85048        63.52729         0.68446
C         54.89205        65.67122        -0.19297
C         53.78456        64.98033         0.51363
C         54.99650        67.14824        -0.06942
C         53.82681        67.87597         0.30714
C         55.05643        70.00478         0.01833
C         53.83973        69.30553         0.24638
C         55.05974        71.41569         0.09272
C         53.87083        72.15700         0.27561
C         55.10851        74.30997         0.19137
C         53.90798        73.62333         0.28315
C         56.58721        50.48850         0.80528
C         57.80083        52.73472         0.40762
C         56.76977        51.72106         0.26038
C         57.58102        54.10569         0.34965
C         56.27580        54.84461         0.64183
C         57.44160        56.94678        -0.40194
C         56.22099        56.30909         0.22957
C         57.35046        58.46930        -0.34789
C         56.23813        59.19449         0.10697
C         57.44002        61.32666        -0.33639
C         56.25970        60.63150         0.06978
C         57.42726        62.75885        -0.44107
C         56.21875        63.45243        -0.19881
C         57.38829        65.61063        -0.90651
C         56.12092        64.87599        -0.58523
C         57.40013        67.12456        -0.80185
C         56.18743        67.83273        -0.34351
C         57.49779        69.92444        -0.42871
C         56.27205        69.25689        -0.21717
C         57.50280        71.39291        -0.51095
C         56.35450        72.11612         0.10424
C         57.68040        74.29664        -0.12403
C         56.40349        73.61861         0.19557
C         58.73364        54.96249         0.45287
C         59.97012        57.03476         0.37218
C         58.73841        56.32454         0.18057
C         60.28649        58.21340        -0.31101
C         58.42498        59.21026        -0.86625
C         59.90760        61.21537        -1.08992
C         58.58284        60.58553        -0.72869
C         59.89295        62.71359        -0.85949
C         58.65715        63.43404        -0.78705
C         59.86254        65.57914        -0.96059
C         58.67632        64.87167        -0.85284
C         59.91174        67.02436        -0.67291
C         58.69067        67.82483        -0.66640
C         60.00298        69.95430        -0.67905
C         58.73327        69.21467        -0.57436
C         60.02896        71.35414        -0.72299
C         58.79203        72.14065        -0.69059
C         60.13246        74.22876        -0.37163
C         58.84091        73.59862        -0.37190
C         61.22509        59.21166        -0.00671
C         62.31911        61.31489        -0.42255
C         61.15868        60.55122        -0.49921
C         62.36892        62.70771        -0.74786
C         61.11066        63.39740        -0.89287
C         62.45124        65.57045        -1.20332
C         61.13134        64.84998        -1.11411
C         62.48799        67.09686        -1.22914
C         61.23087        67.76835        -0.68962
C         62.49743        69.91757        -0.79246
C         61.22897        69.23316        -0.78041
C         62.54292        71.33257        -0.79434
C         61.28542        72.10160        -1.09337
C         62.57722        74.17713        -0.49740
C         61.31267        73.53343        -0.59280
C         63.58780        63.39941        -0.73810
C         64.88309        65.48104        -0.60407
C         63.69064        64.82160        -0.84315
C         64.93253        66.93236        -0.33482
C         63.65985        67.71722        -0.50170
C         64.92958        69.85568        -0.38981
C         63.70963        69.19154        -0.60115
C         64.94627        71.26940        -0.35041
C         63.75873        72.00194        -0.55864
C         65.03725        74.13015        -0.50497
C         63.78290        73.46782        -0.51866
C         66.17729        67.70698        -0.32983
C         67.41829        69.82249        -0.34645
C         66.17747        69.08767        -0.30712
C         67.46172        71.20227        -0.29815
C         66.21056        71.98183         0.04592
C         67.49462        74.05820        -0.52841
C         66.24490        73.42890        -0.39673
C         68.68312        71.92671        -0.42592
C         68.69055        73.31373        -0.50644
O         44.04754        55.44885         0.19137
O         50.92621        65.58719         2.72888
O         37.77531        66.20643         1.07510
O         41.97374        54.60265         3.05432
O         46.19390        47.14383        -0.44817
O         36.38706        60.75627        -2.20814
O         44.12663        42.24489         2.42906
O         60.09737        61.04718        -2.58264
O         43.43764        45.97003         2.87675
O         50.94860        63.15963         2.86308
O         35.14157        70.48452         1.19341
O         48.22573        65.95974        -0.83537
O         54.63913        50.15353         2.16611
O         42.23708        42.02688        -0.69027
O         38.31465        63.11921         1.02571
O         53.23529        56.01919        -0.55254
O         49.50738        58.97083         3.11666
O         59.47469        58.48185        -1.43709
O         45.84494        35.35448        -3.27595
O         44.24805        59.42369        -0.67890
O         40.96904        67.36159         1.13297
O         40.74210        48.05742        -0.03545
O         29.57650        69.65979        -2.03255
O         46.50486        37.80787         0.02886
O         37.38456        58.01267         1.73477
O         43.91117        63.55427         1.82178
O         34.17213        59.40325        -2.34949
O         46.26112        67.37466        -1.68683
O         32.52211        65.15314         0.75634
O         39.70827        65.22813        -1.75000
O         61.83136        65.10385        -2.45045
O         41.84698        43.36269         2.62855
O         55.06412        65.14460        -1.56152
O         46.18498        63.01372        -0.94760
O         57.88351        71.88158        -1.85044
O         44.87340        58.08993         2.77260
O         50.22624        44.55800         1.79265
O         32.04969        67.22510        -2.19460
O         48.92108        50.93502         3.24800
O         47.06037        54.57565         0.40266
O         44.02343        37.75785         0.38671
O         38.26761        47.89405         2.82263
O         56.62131        72.73464         1.40365
O         32.71006        62.06535        -2.47014
O         53.75352        61.08677         2.53942
O         57.26727        66.43101        -2.10824
O         48.68098        43.18620        -1.36566
O         29.12988        72.93204         0.96236
O         60.73911        67.24125         0.57692
O         39.71522        69.77884        -1.67202
O         36.23271        49.86822        -0.50580
O         43.99372        68.53029        -1.93454
O         63.99205        67.22884         0.81631
O         55.71869        52.14059        -0.57938
O         36.24717        54.28710        -1.19985
O         30.41449        66.43323         0.91398
O         53.11405        57.66634         2.78761
O         34.29193        68.72523        -2.02320
O         42.50738        62.92614        -1.51521
O         49.09874        73.12574        -1.02196
O         32.80650        58.50018         0.92207
H         32.02415        58.02237         1.27254
O         58.93649        61.63222        -3.21833
H         59.30013        62.45097        -3.63583
O         39.85003        57.46060         2.80973
H         38.94068        57.84913         2.83363
O         46.44737        56.18442         3.60325
H         46.15165        57.05145         3.96586
O         28.89182        63.44804        -2.30866
H         28.93776        62.53082        -2.65469
O         62.63599        67.51634        -2.60401
H         62.22947        66.81188        -3.16344
O         46.17505        69.01921         1.58032
H         46.31519        69.87858         2.03193
O         50.66599        52.80121         3.60838
H         50.43225        51.93849         4.02230
O         66.18595        72.03915         1.51780
H         67.01866        72.47159         1.80340
O         37.16085        50.26524         2.98294
H         37.64509        49.67340         3.60322
O         46.09125        65.07980         2.03423
H         45.23310        64.56165         2.17974
O         51.22601        72.22233         2.12965
H         52.04350        72.61407         2.50497
O         40.33374        71.18248         1.65974
H         40.33289        72.07482         2.06636
O         61.21341        72.20325        -2.56481
H         60.30129        72.48222        -2.79863
O         57.42622        56.56693        -1.80426
H         58.18788        57.02297        -2.22881
O         49.86880        67.87077         2.63299
H         50.35156        67.29794         3.27529
O         56.35299        54.91474         2.12471
H         57.17941        55.38954         2.36041
O         46.34368        51.74385         3.70895
H         47.19611        51.31632         3.97110
O         32.92187        56.69350        -2.27736
H         32.97499        55.73908        -2.49254
O         31.51006        58.78286        -2.53811
H         32.40644        58.97906        -2.90751
H         22.84887        75.12681         0.09741
H         25.29079        75.15847        -0.22282
H         27.55383        75.21491        -0.92026
H         30.43066        75.26491        -1.08514
H         32.80351        75.29193        -0.52272
H         35.28489        75.27893        -0.37160
H         37.78128        75.28642        -0.32147
H         40.24629        75.29608        -0.13665
H         42.77353        75.32327        -0.09487
H         45.22632        75.29084         0.17393
H         47.44774        75.21770         1.03569
H         50.36974        75.59999         0.76916
H         52.70670        75.43498         0.25802
H         55.09740        75.40690         0.10438
H         57.72758        75.38919         0.00546
H         60.18620        75.29247        -0.09110
H         62.60316        75.26883        -0.35416
H         65.06001        75.22428        -0.62990
H         67.53585        75.14081        -0.71915
H         22.00630        69.22511         0.43897
H         20.75835        71.36326         0.50744
H         20.73379        73.84678         0.38466
H         24.50818        64.93724         0.12898
H         23.25785        67.09150         0.28239
H         27.06615        60.65827         0.05579
H         25.79281        62.79403         0.18519
H         29.47986        56.44294         0.10000
H         28.26977        58.57829         0.02624
H         31.87494        52.13515         0.20878
H         30.66053        54.28602         0.18469
H         34.24838        47.75691         0.86857
H         33.02724        50.02315         0.61935
H         36.77781        43.55323         0.72635
H         35.52755        45.65278         0.93681
H         39.32162        39.35088        -0.16671
H         38.02506        41.42770         0.46733
H         41.47240        36.75849        -3.30304
H         40.47365        37.72346        -1.32843
H         44.35480        35.72223        -6.80364
H         42.52930        35.54108        -5.29759
H         46.47265        36.79199        -6.25964
H         48.06178        37.72009        -4.22924
H         49.56347        37.94276        -2.31977
H         50.94037        39.49247        -1.16365
H         52.25058        41.61864        -0.76052
H         53.48831        43.79134        -0.45749
H         54.70860        45.86849        -0.15089
H         55.94892        47.92697         0.00346
H         57.34674        50.05639         1.47415
H         58.84358        52.39566         0.52974
H         59.70171        54.48177         0.67343
H         60.69309        56.62315         1.09404
H         62.05966        58.96417         0.66823
H         63.24912        60.83014        -0.08820
H         64.50747        62.83232        -0.52757
H         65.79130        64.88803        -0.41269
H         67.13394        67.16529        -0.38618
H         68.35547        69.25481        -0.46007
H         69.62594        71.36794        -0.52115
H         69.64735        73.84087        -0.62733
