         252
 CSIRO Nanostructure Databank - Neutral Graphene Oxide Data Set
C         30.79957        31.41700         0.26516
C         30.91520        32.37317        -0.65495
C         31.32410        35.80208        -2.19532
C         31.15134        37.02170        -1.92552
C         30.60359        40.05912        -1.63570
C         30.51645        41.30137        -1.73062
C         32.90641        28.95613         2.17067
C         31.89014        29.53028         1.74063
C         32.97494        31.84911         1.42889
C         31.53129        30.69248         1.07129
C         33.30324        32.61724         0.12217
C         32.13022        32.96373        -0.77866
C         33.20623        35.76434        -0.71067
C         32.36895        35.05232        -1.61602
C         33.00059        37.18163        -0.53887
C         31.88033        37.86940        -1.08708
C         32.72723        40.19325        -0.36406
C         31.58124        39.29448        -0.84914
C         32.69384        41.70154        -0.56407
C         31.54237        42.30721        -1.97052
C         32.61940        44.39114        -1.17983
C         31.63682        43.71692        -1.51806
C         35.51397        27.49675         1.82719
C         35.40881        28.89824         1.96435
C         34.21446        29.65756         2.46527
C         35.39101        31.69186         1.58001
C         34.19676        31.05665         1.83024
C         35.33943        33.21186         1.48458
C         34.25471        33.75029         0.50639
C         35.35249        35.95577         0.60702
C         34.23614        35.07150         0.12412
C         35.41801        37.36675         0.17053
C         34.08456        38.00709         0.06575
C         35.30288        40.30006         0.06926
C         34.01663        39.51037         0.05098
C         35.27992        41.75687        -0.28820
C         34.02892        42.40712        -0.81232
C         35.13891        44.67666        -0.38953
C         34.00576        43.91681        -0.94760
C         35.28716        46.00832        -0.15552
C         37.67154        27.31361         0.82021
C         36.44528        26.82366         1.30835
C         37.82203        28.75162         1.26916
C         36.61182        29.55213         1.61221
C         37.84997        31.67088         1.13231
C         36.65848        30.98028         1.52048
C         37.84744        33.12304         1.02054
C         36.67607        33.84779         1.19584
C         37.90064        36.07113         0.94615
C         36.62903        35.31500         1.12053
C         37.85550        37.44996         0.42784
C         36.60301        38.10687         0.20611
C         37.77581        40.26029        -0.12516
C         36.60636        39.56862         0.00615
C         37.90613        41.75335        -0.38055
C         36.57259        42.49763        -0.52857
C         37.53425        44.59655         0.65808
C         36.49130        43.97007        -0.27985
C         37.62771        46.14701         0.49226
C         36.39299        46.60297         0.19835
C         39.95050        24.74412        -0.61327
C         38.90918        25.39773        -0.40408
C         39.69324        27.60677        -0.50440
C         38.62756        26.75463        -0.03000
C         40.06846        28.81950         0.03317
C         39.07726        29.50572         0.89054
C         40.21745        31.62540         0.33661
C         39.04430        30.97737         0.79264
C         40.24754        33.06735         0.38000
C         39.10551        33.78466         0.71908
C         40.21947        35.94990        -0.08244
C         39.16678        35.26689         0.76671
C         40.28912        37.43293         0.15744
C         39.09343        38.13113         0.24394
C         40.30432        40.34108         0.16756
C         39.08718        39.54718        -0.25062
C         40.23842        41.69882         0.38526
C         38.87791        42.33653         0.67125
C         40.19358        44.66232         0.81234
C         38.90414        43.88105         0.75972
C         40.13369        46.12028         0.34277
C         38.86243        46.87379         0.92940
C         40.12887        48.82210         0.21505
C         39.02480        48.27245         0.33757
C         42.56818        24.44887        -0.34092
C         41.34089        25.06074        -0.71938
C         42.63725        27.24339        -0.50956
C         41.52482        26.46174        -0.93014
C         42.58677        28.69190        -0.35331
C         41.36093        29.44273        -0.18284
C         42.65343        31.53255        -0.19113
C         41.40543        30.85812        -0.01074
C         42.60334        32.97938        -0.62321
C         41.54257        33.77561         0.13569
C         42.67397        35.97561        -0.82306
C         41.56448        35.25859        -0.03667
C         42.81431        37.42455        -0.35598
C         41.61925        38.11941         0.28413
C         42.75797        40.30960         0.00842
C         41.56885        39.62554         0.06724
C         42.79061        41.71949         0.44111
C         41.48063        42.45625         0.63510
C         42.67411        44.64714         0.59805
C         41.50383        43.95509         0.64030
C         42.69072        46.12646         0.93670
C         41.44262        46.88930         0.50910
C         42.74444        48.92220         0.37426
C         41.45788        48.27367         0.30215
C         43.62129        25.12703        -0.21524
C         45.04315        27.24052         0.01177
C         43.84638        26.52542        -0.19673
C         45.04609        28.65058         0.03002
C         43.83085        29.38454        -0.13383
C         45.12100        31.57304         0.11261
C         43.85153        30.82380        -0.16482
C         45.21059        33.02613        -0.18652
C         43.97242        33.69178        -0.67598
C         45.29813        35.93585        -0.71785
C         43.99327        35.18522        -0.79705
C         45.28433        37.44140        -0.78685
C         43.99301        38.10042        -0.41080
C         45.30864        40.36113        -0.39675
C         44.01039        39.59298        -0.33852
C         45.29981        41.89617        -0.35177
C         44.09780        42.50783         0.43515
C         45.26776        44.68442         0.37734
C         43.94164        44.00398         0.02891
C         45.23917        46.10394         0.50840
C         44.02380        46.81836         0.52527
C         43.76928        48.17708         0.42772
C         47.45951        27.21290        -0.49119
C         46.38590        26.73993        -0.08731
C         47.46098        28.74531        -0.72249
C         46.41679        29.28663         0.28029
C         47.75143        31.52923         0.42657
C         46.40342        30.80409         0.33572
C         47.62851        33.05794         0.44081
C         46.39054        33.73844        -0.03646
C         47.71386        35.88205        -0.21379
C         46.52277        35.17118        -0.33983
C         47.68383        37.38236         0.09480
C         46.62606        38.22970        -0.75003
C         47.67778        40.26715         0.38435
C         46.58338        39.63600        -0.15691
C         47.56591        41.70280         0.74802
C         46.50197        42.50410         0.32497
C         47.71795        44.56833         0.96416
C         46.47672        43.92677         0.54003
C         47.58034        45.98009         0.91984
C         46.54947        46.65030         0.69898
C         49.86923        29.08087        -1.33515
C         48.80196        29.39862        -0.59218
C         50.31525        31.48121        -0.46322
C         49.11133        30.71098         0.21707
C         50.64393        32.73598         0.00608
C         48.83534        33.88627         0.48030
C         50.31465        35.86045         0.35689
C         48.95117        35.19506         0.12783
C         50.30750        37.34830         0.01180
C         49.04213        38.08453        -0.07558
C         50.36086        40.11687         0.64613
C         49.03108        39.58540         0.25871
C         50.52011        41.27713         1.42494
C         48.56747        42.37448         1.49120
C         50.14117        44.07926         1.81212
C         48.77361        43.77351         1.45732
C         50.99249        29.53153        -1.81789
C         52.24186        31.78525        -1.82688
C         51.20196        30.87206        -1.48528
C         52.43118        32.97554        -1.49225
C         51.58978        33.68473        -0.56464
C         52.45466        36.02290        -0.74327
C         51.50012        35.05964        -0.37751
C         52.61387        37.25609        -0.58133
C         51.47518        38.08766        -0.23226
C         52.62615        40.35984         0.23519
C         51.51846        39.49473         0.06682
C         52.71814        41.52648         0.71294
C         51.64632        42.15297         1.39967
C         51.23141        43.48767         1.73446
O         49.92271        33.24827         1.10041
O         38.88129        35.88843         2.03855
O         41.97288        34.66150         1.22287
O         45.31168        36.66478        -2.02336
O         39.50630        44.30693         2.04228
O         42.07700        32.90356        -1.93417
O         42.18127        41.86583         1.78850
O         33.80768        38.76713         1.29335
O         34.30180        43.02599        -2.10227
O         44.62290        39.98406        -1.64363
O         47.28503        37.46543         1.40751
O         31.64432        39.74858         0.52027
O         35.23667        41.34435         1.10788
O         38.92008        28.94569         2.23990
O         39.32401        39.38066        -1.76874
O         49.43860        41.60869         2.26239
O         49.13165        39.08356        -1.11872
O         47.68931        32.24764         1.68635
O         45.56851        31.20714         1.47221
O         35.67096        35.92488         2.05585
O         44.12668        34.32909        -1.98545
O         36.75324        43.45718        -1.61459
O         40.46998        27.12480        -1.57245
O         32.52976        33.71793        -1.90476
O         44.57010        42.50348         1.80207
H         43.77764        42.47774         2.39176
O         49.53573        30.33504         1.51590
H         49.19572        30.99826         2.15813
O         39.90155        46.00403        -1.07795
H         39.82337        46.90662        -1.45749
O         42.70947        46.16378         2.39192
H         42.59209        47.09304         2.68467
O         45.36954        42.33450        -1.72592
H         45.03374        41.59316        -2.28816
O         50.62236        35.80487         1.75640
H         50.47066        34.88462         2.06991
O         46.96783        28.97013        -2.03441
H         47.60862        28.61411        -2.68529
O         36.91682        44.38692         1.94670
H         37.60150        44.55018         2.63398
O         32.15250        42.27355         0.59249
H         31.55802        41.60905         1.01323
O         34.35301        29.84902         3.87961
H         34.50466        28.97588         4.29826
O         38.94868        46.94328         2.33287
H         38.09025        47.24335         2.69633
O         47.06105        38.37550        -2.08531
H         46.64802        37.65116        -2.61813
O         42.23921        36.02436        -2.20650
H         42.66226        35.23664        -2.64440
O         43.69138        44.19220        -1.37865
H         44.43414        43.77014        -1.88308
O         39.71817        35.83116        -1.46068
H         40.52239        35.86006        -2.05600
O         38.62421        41.91411        -1.61951
H         38.08512        41.56426        -2.35928
O         32.47237        32.68755         2.39400
H         32.70753        32.36035         3.28636
O         34.93077        33.57072         2.83333
H         35.04675        34.54905         2.93576
O         32.09319        42.14884        -3.21293
H         32.83776        42.78656        -3.32352
O         46.85891        28.86893         1.58636
H         46.36756        29.40493         2.24709
O         38.45382        41.85169         1.95284
H         38.94768        42.34988         2.64117
O         41.90399        37.99366         1.72706
H         41.10312        38.24883         2.23401
O         34.09411        31.71110        -0.70517
H         34.02705        32.02245        -1.63426
O         38.39628        38.38838        -2.25309
H         38.89216        37.52767        -2.14449
