         232
 CSIRO Nanostructure Databank - Neutral Graphene Oxide Data Set
C        -10.21672         0.37140         2.41721
C         -9.13428         1.17352         1.89337
C         -8.04889         0.44549         1.13497
C         -7.16955         1.37323         0.31686
C         -6.30930         0.74487        -0.65190
C         -4.96536         1.37720        -0.84073
C         -3.68039         0.66403        -1.21457
C         -2.41067         1.43639        -1.41234
C         -1.19683         0.73487        -1.54561
C          0.05949         1.40926        -1.52446
C          1.26850         0.69559        -1.35957
C          2.52173         1.45697        -1.21131
C          3.74362         0.73710        -0.68258
C          4.80009         1.53218         0.00561
C          5.94938         0.81476         0.63357
C          7.23686         1.56204         0.96945
C          8.47536         0.69873         0.81649
C          9.72929         1.38822         0.62022
C         10.92941         0.59085         0.56150
C         -9.03168         2.51746         2.12097
C         -8.05059         3.35757         1.44871
C         -7.13051         2.73097         0.50313
C         -6.30262         3.57806        -0.46787
C         -5.00223         2.87749        -0.92926
C         -3.70247         3.60754        -1.05777
C         -2.39407         2.88080        -1.21944
C         -1.22355         3.60772        -1.33347
C          0.04799         2.89659        -1.83231
C          1.32160         3.60794        -1.40387
C          2.45264         2.93115        -1.07411
C          3.69283         3.64082        -0.66220
C          4.94540         2.93284        -0.37668
C          6.17602         3.61339        -0.18109
C          7.33482         2.90906         0.26696
C          8.59279         3.56061         0.24264
C          9.77934         2.76598         0.44484
C         -8.07340         4.71453         1.62784
C         -7.30429         5.62430         0.70218
C         -6.05648         4.94260         0.15927
C         -4.82922         5.51686         0.25230
C         -3.69924         5.05555        -0.62904
C         -2.46145         5.87239        -0.88902
C         -1.23322         5.14030        -1.49896
C          0.10283         5.79722        -1.16162
C          1.33689         5.09490        -1.54687
C          2.61297         5.86118        -1.38959
C          3.79269         5.10403        -0.88104
C          5.13279         5.72722        -1.02042
C          6.30012         5.00085        -0.52941
C          7.52291         5.69736        -0.36656
C          8.67743         4.94434        -0.04395
C         -7.05917         6.99915         1.25638
C         -5.82730         7.51699         1.47279
C         -4.67824         6.55469         1.35265
C         -3.29774         8.08488         0.18253
C         -2.24248         7.14317        -0.12184
C         -0.93702         7.49113         0.19102
C          0.20706         7.02520        -0.54793
C          1.40152         7.89264        -0.58326
C          2.61529         7.28195        -0.95551
C          3.85363         7.95379        -0.84342
C          5.14359         7.25661        -1.03350
C          6.39324         7.90207        -0.59383
C          7.53632         7.14497        -0.41480
C         -5.70846         8.96066         1.72094
C         -4.62845         9.73653         1.50706
C         -3.25055         9.17914         1.24206
C         -2.29083        10.10829         0.50037
C         -0.95155         9.71797         0.40035
C          0.19339        10.15666        -0.25374
C          1.38838         9.32214        -0.36284
C          2.63019         9.99372        -0.36028
C          3.86277         9.32504        -0.49541
C          5.13698         9.99591        -0.31879
C          6.32631         9.32405        -0.34023
C        -10.38777        -0.94005         2.06328
C         -9.52202        -1.58451         1.10687
C         -8.64107        -0.69120         0.27778
C         -7.53867        -1.42472        -0.46290
C         -6.62807        -0.52772        -1.09088
C         -4.81112        -1.57837        -1.65239
C         -3.66825        -0.78238        -1.53287
C         -2.41230        -1.50976        -1.75981
C         -1.14363        -0.72512        -1.82269
C          0.16386        -1.48475        -1.72983
C          1.35958        -0.73051        -1.28252
C          2.52619        -1.40612        -0.82318
C          3.65473        -0.69841        -0.38170
C          4.77070        -1.35369         0.24218
C          5.94066        -0.65078         0.57568
C          7.09973        -1.32324         1.10026
C          8.41979        -0.67236         1.03750
C          9.64401        -1.47705         0.94864
C         10.87285        -0.76473         0.66698
C         -9.50408        -2.93626         0.88464
C         -8.46211        -3.58961         0.12584
C         -7.39140        -2.82241        -0.49877
C         -6.16933        -3.54693        -0.89188
C         -4.93377        -2.92581        -1.23268
C         -3.64163        -3.61638        -0.85612
C         -2.42127        -2.99447        -1.53089
C         -1.13600        -3.71972        -1.37142
C          0.17934        -3.02245        -1.71403
C          1.30569        -3.59702        -0.87018
C          2.65963        -2.91793        -0.95944
C          3.67745        -3.55631        -0.01992
C          4.68749        -2.77571         0.51500
C          5.68823        -3.36337         1.42229
C          6.87647        -2.54692         1.69578
C          8.71171        -3.73270         1.55551
C          9.73162        -2.86807         1.01320
C         -8.43890        -4.97786         0.09934
C         -7.30577        -5.69180        -0.36405
C         -6.14468        -4.98770        -0.74937
C         -4.92822        -5.74777        -1.01486
C         -3.71932        -5.10473        -1.09960
C         -2.44692        -5.81480        -1.32617
C         -1.16186        -5.06864        -1.20587
C          0.12680        -5.87591        -1.23325
C          1.28194        -5.06204        -0.63559
C          2.60038        -5.77107        -0.48097
C          3.75007        -4.99502         0.06457
C          4.84619        -5.65245         0.63270
C          5.79935        -4.92330         1.48926
C          7.11933        -5.59427         1.98908
C          8.34343        -5.01131         1.26735
C         -7.30478        -7.13173        -0.26736
C         -6.21850        -7.88962        -0.60146
C         -5.00715        -7.25699        -1.24468
C         -3.73850        -7.98133        -0.84491
C         -2.45712        -7.34299        -1.11630
C         -1.23469        -7.99822        -0.66819
C         -0.01176        -7.20377        -0.50192
C          1.22266        -7.90594        -0.01500
C          2.55094        -7.25591        -0.27242
C          3.76923        -7.95196         0.23766
C          4.97837        -7.12705         0.58517
C          6.04665        -7.80247         1.36939
C          7.08236        -7.10159         1.87732
C         -6.19369        -9.31060        -0.32629
C         -5.02400        -9.99657        -0.24243
C         -3.74606        -9.32105        -0.42196
C         -2.53544       -10.00587        -0.17688
C         -1.27164        -9.34418        -0.22745
C         -0.06511       -10.03013         0.11621
C          1.18944        -9.37925         0.20567
C          2.37186       -10.02784         0.55168
C          3.55188        -9.22605         1.04001
C          4.85745        -9.96225         1.20777
C          5.99633        -9.26886         1.41341
O         -3.58367         5.93669        -1.83997
O          7.87661        -3.06865         2.50651
O          0.92526        -4.12584         0.42842
O          4.85560        -7.85661        -0.70260
O          2.79109        -6.69477        -1.59625
O          0.39240        -7.13988         0.91857
O          3.62006         1.04940        -2.10696
O          7.17852         1.89284         2.39016
H          6.22775         2.05529         2.59617
O         -3.41514        -3.39818         0.57152
H         -4.18641        -3.75390         1.06152
O         -0.35015        -1.00981        -3.02286
O          0.41241        -6.18318        -2.60727
H          0.47852        -5.33110        -3.10236
O          3.16412        -3.15966        -2.30206
H          2.41064        -3.07540        -2.93363
O         -2.42615        -6.70241        -2.48580
O          5.14325        -4.14422         2.53412
O         -5.14594        -7.44222        -2.69145
H         -4.28184        -7.17470        -3.08795
O         -0.67143         8.48003         1.10127
O          4.81643         1.30269         1.47210
O         -4.08641         0.89653         0.24541
O         -8.18039         5.86241        -0.44150
H         -8.16039         5.04833        -1.00640
O         -7.18759        -0.20022         2.10844
H         -6.75122         0.49448         2.64431
O          3.47658         4.63316         0.46954
O         -1.31891         5.35855        -2.94232
H         -2.27508         5.30947        -3.18025
O          3.16646        -8.72793         2.37055
H          2.90171        -9.49681         2.91775
O          0.49106        -3.41818        -3.08650
H         -0.03954        -2.81498        -3.66583
O          2.09845         5.58062        -2.72181
O          7.24669        -5.35163         3.40082
H          6.55926        -4.69155         3.65477
O         -9.47954        -0.05170        -0.72120
H         -9.91205        -0.75129        -1.25358
O         -2.78602         8.75521         2.51567
H         -1.83322         8.51612         2.44783
O         -2.59094        -2.48175        -2.87925
O         -5.94661        -0.98751        -2.21243
O         -4.27722         8.21090        -0.71697
H         -4.17481         7.51938        -1.42895
O         -7.11223         3.72521        -1.66422
H         -6.48979         3.92734        -2.40188
O         -4.58053         3.38837        -2.23368
O          5.28351         6.46844        -2.26343
O          0.00638         2.98264        -3.28748
H         -0.19277         3.92127        -3.52287
O         -3.80653         6.40098         2.19741
H         11.79695        -1.35657         0.58714
H         11.89139         1.09649         0.39317
H         10.75938         3.25581         0.33884
H          9.65562         5.44494         0.00926
H          8.47411         7.65332        -0.14202
H          7.26405         9.86168        -0.13498
H          5.12572        11.07523        -0.10672
H          2.63734        11.07967        -0.18303
H          0.28406        11.20804        -0.56265
H         -2.70925        10.81108        -0.23374
H         -4.71625        10.82205         1.66297
H         -6.66209         9.45588         1.96931
H         -7.94777         7.64462         1.34411
H         -8.81502         5.16464         2.30432
H         -9.79279         3.02521         2.73442
H        -10.91825         0.84336         3.12195
H        -11.18814        -1.53455         2.52946
H        -10.20830        -3.58516         1.42943
H         -9.28447        -5.54029         0.52241
H         -8.19594        -7.61640         0.16100
H         -7.14741        -9.81116        -0.10027
H         -5.01816       -11.06489         0.01692
H         -2.57161       -11.06321         0.12311
H         -0.12582       -11.10078         0.36050
H          2.35838       -11.11478         0.72961
H          4.85429       -11.06178         1.25648
H          6.93389        -9.79991         1.63996
H          7.89173        -7.63014         2.40364
H          8.90169        -5.62027         0.54301
H         10.68003        -3.33128         0.69663
