         344
 CSIRO Nanostructure Databank - Neutral Graphene Oxide Data Set
C          1.60409         2.04027        -1.82124
C          1.48776         3.41659        -1.53761
C          2.79548         1.37001        -1.60544
C          2.58195         4.14643        -1.07574
C          1.32512         6.38012        -1.20428
C          1.37122         7.72431        -1.31015
C          2.45696         5.58984        -0.60255
C          2.57798         8.49737        -1.03594
C          1.38934        10.68149        -1.28267
C          1.38246        12.05203        -1.22075
C          2.57637         9.89852        -1.07485
C          2.55780        12.80003        -0.81331
C          1.28212        14.98301        -0.51461
C          1.23453        16.33629        -0.47554
C          2.52907        14.25209        -0.61432
C          2.45964        17.16378        -0.74695
C          2.46317        18.53015        -0.10348
C          3.92980         2.06434        -1.10620
C          3.81630         3.47387        -0.86524
C          5.15602         1.37683        -0.87618
C          4.98117         4.21074        -0.46332
C          3.76387         6.35351        -0.67477
C          3.78360         7.74122        -0.77321
C          4.96714         5.59685        -0.43702
C          5.12232         8.46185        -0.75838
C          3.88077        10.67534        -1.09353
C          3.73362        12.10502        -0.62610
C          5.04018         9.93668        -0.47042
C          4.89289        12.79004         0.04428
C          3.73812        14.96343        -0.50542
C          3.73747        16.40957        -0.46593
C          4.97932        14.26007        -0.28381
C          4.91152        17.11553        -0.28892
C          3.61544        19.17648         0.17336
C          4.91757        18.53434         0.01985
C          6.28158         2.00977        -0.32459
C          6.14717         3.45192         0.14234
C          7.51243         1.35527        -0.16292
C          7.53339         4.10812        -0.10786
C          6.23800         6.34556        -0.24411
C          6.09588         7.77900         0.20966
C          7.52252         5.62554        -0.03944
C          7.42716         8.49921         0.31230
C          6.17052        10.58941        -0.06421
C          6.19405        12.06672        -0.19680
C          7.41274         9.89429         0.26672
C          7.46208        12.80389         0.04237
C          6.18384        14.93561        -0.17361
C          6.19872        16.39963        -0.35488
C          7.42088        14.28004         0.18341
C          7.46566        17.15272        -0.11732
C          6.09039        19.21891         0.27924
C          7.39916        18.60852         0.19554
C          8.68948         1.98725         0.37139
C          8.59836         3.44631         0.77450
C          9.86334         1.32779         0.61766
C          9.91691         4.19149         0.75215
C          8.69590         6.35276         0.50414
C          8.64225         7.78160         0.54387
C          9.88144         5.64957         0.76169
C          9.84397         8.52047         0.81957
C          8.63129        10.64544         0.51261
C          8.65587        12.04576         0.42446
C          9.82456         9.92211         0.84561
C          9.91889        12.85119         0.43710
C          8.56775        14.98339         0.52262
C          8.66033        16.40885         0.35822
C          9.71404        14.22343         1.16083
C          9.84710        17.11488         0.48549
C          8.58237        19.27278         0.35478
C          9.87228        18.55417         0.00734
C         10.98307         2.01719         1.35826
C         11.04843         3.50485         1.07713
C         12.31362         1.35572         1.11160
C         12.23709         4.24077         1.64618
C         11.10125         6.37396         0.98960
C         11.08675         7.79638         0.99034
C         12.32606         5.67835         1.18397
C         12.30844         8.49092         1.13122
C         10.98471        10.68298         1.44551
C         11.12323        12.09867         0.94193
C         12.31196         9.92721         1.41687
C         12.31964        12.77000         0.99010
C         11.03418        15.00362         1.16247
C         11.08019        16.45633         0.82311
C         12.31378        14.25168         1.03308
C         12.28396        17.13735         0.80426
C         11.14024        19.27206         0.37452
C         12.31366        18.58087         0.60291
C         13.52596         2.02598         1.19315
C         13.55260         3.46979         1.56298
C         14.76485         1.38015         0.94173
C         14.83476         4.22396         1.36977
C         13.54803         6.36845         1.08639
C         13.54309         7.80643         1.00069
C         14.81443         5.67821         1.10652
C         14.75607         8.51768         0.74151
C         13.62957        10.66697         1.24602
C         13.59821        12.11844         1.03151
C         14.80874         9.91803         0.76992
C         14.78790        12.80639         0.72618
C         13.51396        14.99841         0.50561
C         13.58465        16.41384         1.10229
C         14.81284        14.23298         0.61765
C         14.83511        17.11427         0.62082
C         13.58892        19.25064         0.62497
C         14.80851        18.56906         0.58898
C         16.01306         2.07512         0.90811
C         16.04668         3.48126         1.01557
C         17.24384         1.37478         0.71658
C         17.33303         4.23013         1.18029
C         15.99441         6.32890         0.74253
C         15.89918         7.71732         0.15848
C         17.25178         5.66489         0.71067
C         17.20420         8.46487         0.14274
C         15.96758        10.65656         0.39334
C         16.00026        12.06344         0.45401
C         17.12268         9.91740        -0.23800
C         17.20017        12.79375         0.11268
C         16.01142        14.93111         0.44097
C         15.99847        16.39439         0.46531
C         17.22831        14.20643         0.17299
C         17.32159        17.09992         0.64791
C         16.03913        19.26125         0.40470
C         17.25978        18.58062         0.32453
C         18.47736         2.05925         0.57383
C         18.52069         3.49174         0.64253
C         19.68195         1.35551         0.33612
C         19.69244         4.20187         0.35031
C         18.43460         6.35084         0.37712
C         18.40368         7.79416         0.14036
C         19.67546         5.64584         0.26970
C         19.65757         8.51308        -0.07125
C         18.42273        10.66234        -0.14513
C         18.39732        12.04779        -0.19052
C         19.65469         9.91709        -0.21299
C         19.59536        12.76252        -0.75583
C         18.46445        14.93259        -0.12116
C         18.50158        16.39206         0.02117
C         19.59962        14.25178        -0.50802
C         19.63270        17.11263        -0.23967
C         18.46448        19.26563         0.12392
C         19.68792        18.56048        -0.02829
C         20.90691         2.03858         0.16585
C         20.91417         3.48250         0.12362
C         22.12268         1.33072         0.03699
C         22.11899         4.18224        -0.08703
C         20.88238         6.34804        -0.00534
C         20.88850         7.78433        -0.13395
C         22.10530         5.62583        -0.15010
C         22.11365         8.47775        -0.33256
C         20.89862        10.63639        -0.30462
C         20.89832        12.05454        -0.43388
C         22.12711         9.92020        -0.34661
C         22.11276        12.74087        -0.49909
C         20.84652        14.96899        -0.86813
C         20.88151        16.50045        -0.83547
C         22.13357        14.20048        -0.78597
C         22.08796        17.03085        -0.02869
C         20.91133        19.23382        -0.02662
C         22.16198        18.54073        -0.12987
C         23.35233         2.00956        -0.11299
C         23.35084         3.44891        -0.19655
C         24.58198         1.31401        -0.19893
C         24.57090         4.12388        -0.38741
C         23.30607         6.33367        -0.40686
C         23.33696         7.74590        -0.48022
C         24.53882         5.57188        -0.64338
C         24.60085         8.45001        -0.53027
C         23.34803        10.63973        -0.46764
C         23.34398        12.03370        -0.49547
C         24.62597         9.92639        -0.83715
C         24.63065        12.77969        -0.80584
C         23.40255        14.92132        -0.49875
C         23.37885        16.33248        -0.35239
C         24.58081        14.20625        -0.34320
C         24.61900        17.03308        -0.29365
C         23.35531        19.20070        -0.26070
C         24.60772        18.48654        -0.70349
C         25.80909         1.99733        -0.30547
C         25.80848         3.43375        -0.39189
C         27.05293         1.30084        -0.32411
C         27.05870         4.14138        -0.39524
C         25.85632         6.33047        -0.57187
C         25.79159         7.77956        -0.36539
C         27.09590         5.56984        -0.33074
C         27.02496         8.48717         0.03531
C         25.87385        10.65834        -0.37599
C         25.87743        12.05090        -0.37234
C         27.07693         9.95801        -0.10918
C         27.09081        12.78100        -0.16917
C         25.77410        14.88108         0.26578
C         25.79061        16.35360        -0.03188
C         27.07747        14.20213        -0.07007
C         27.03581        17.08955         0.35778
C         25.90206        19.19108        -0.41701
C         27.04232        18.53785        -0.07422
C         28.26892         1.98371        -0.34752
C         28.28162         3.42368        -0.34125
C         29.53040         1.28637        -0.35033
C         29.52313         4.12482        -0.28751
C         28.30115         6.24891        -0.16710
C         28.30881         7.69679         0.12580
C         29.54363         5.54933        -0.20023
C         29.58640         8.42142         0.04981
C         28.29673        10.64641         0.04158
C         28.32731        12.06296        -0.05776
C         29.55470         9.88342         0.25527
C         29.57818        12.79587        -0.10777
C         28.30146        14.94450        -0.07671
C         28.31121        16.33987         0.03737
C         29.56616        14.21728        -0.18061
C         29.59568        17.08314         0.30770
C         28.31844        19.21830        -0.10831
C         29.51422        18.55494        -0.05703
C         30.71684         1.96400        -0.33212
C         30.75341         3.40178        -0.28876
C         31.96225         4.12015        -0.23323
C         30.78102         6.26147        -0.16934
C         30.77541         7.72922        -0.11978
C         31.97378         5.51514        -0.18368
C         31.99181         8.47871        -0.35905
C         30.87654        10.63976         0.08206
C         30.82023        12.10207        -0.17044
C         32.02828         9.83619        -0.34881
C         32.00333        12.82403        -0.37149
C         30.78823        14.93353        -0.31660
C         30.80310        16.39202        -0.28434
C         31.98929        14.21263        -0.44593
C         31.89735        17.13247        -0.64334
C         30.74724        19.25706        -0.31906
C         31.89340        18.56854        -0.59084
O         13.14478        10.25143         2.58851
O         14.37192         3.78591         2.74769
O         21.50220        14.46921        -2.11399
O          6.96111        12.47794        -1.36373
O         11.83068        14.68627         2.36862
O          7.16597         6.19371        -1.36854
O         30.35125        10.30666         1.40904
O         25.24987         5.95109        -1.86659
O         27.52491         8.02278         1.34573
O          7.06542        16.83368        -1.49959
O          7.92288         3.75984        -1.45758
H          7.62447         4.50095        -2.03803
O         13.78724        16.37727         2.53848
H         13.02752        15.87577         2.92640
O         17.54449         4.29607         2.65468
H         16.65805         4.33538         3.07742
O          5.46957         7.80174         1.51595
H          6.10628         7.45899         2.17717
O         10.21497        13.17598        -0.95910
H          9.38684        13.10895        -1.48244
O         15.54756         7.50020        -1.25617
H         15.81768         8.31453        -1.74684
O          2.45269        17.41078        -2.20095
H          3.30780        17.83616        -2.42663
O         24.51051        18.47674        -2.17650
H         23.62473        18.12182        -2.40815
O          9.32160        13.97981         2.52069
H         10.14758        13.84061         3.03870
O         21.00647        16.99164        -2.18716
H         21.30715        16.23275        -2.74028
O         19.44090        12.61421        -2.21957
H         20.17003        13.14805        -2.62068
O         10.62377        10.84663         2.85876
H         11.47690        10.86984         3.35499
O         10.62917         1.92627         2.79808
H         11.16166         2.63006         3.25336
O         16.81468         9.90928        -1.69989
H         17.10919        10.77188        -2.06896
O          9.89361        18.48693        -1.46774
H          9.10397        17.97470        -1.75263
O          8.25987         3.47457         2.19514
H          8.96395         2.93951         2.64947
O          2.14022         5.47386         0.83033
H          2.26376         6.36000         1.23226
O         25.64662        14.74664         1.78041
H         24.70218        14.90321         2.00060
O         24.70498        12.81136        -2.28499
H         23.93168        13.32705        -2.60348
O         17.55810        17.02417         2.09841
H         16.73487        17.31680         2.54593
O         27.03211        17.10984         1.84199
H         26.67190        16.22423         2.12345
O         21.79473        16.69572         1.36379
H         22.40333        17.21011         1.93432
O         11.92106         4.32660         3.08756
H         12.79421         4.42491         3.54217
O          4.23127        10.76139        -2.53584
H          3.52606        11.28452        -2.97520
O          5.77659         3.44520         1.54062
H          6.55800         3.15746         2.07541
O         13.27004        15.14634        -0.92196
H         14.03488        15.61764        -1.31523
O         24.67882         9.98386        -2.30387
H         24.70784        10.94248        -2.55408
O         29.77396        17.02781         1.76525
H         28.88671        17.23005         2.15681
O          4.66464        12.68357         1.49075
H          3.79891        13.10024         1.68730
O          5.67316         8.36300        -2.09512
H          5.26717         9.08086        -2.63544
H          0.72783         1.49420        -2.19781
H          0.51203         3.90055        -1.68152
H          2.87035         0.29152        -1.80628
H          0.38218         5.86248        -1.43342
H          0.47904         8.25539        -1.67193
H          0.43525        10.16980        -1.47408
H          0.44290        12.59072        -1.40470
H          0.35092        14.40840        -0.39983
H          0.27102        16.85391        -0.35639
H          1.49835        19.04466         0.02340
H          5.21942         0.31285        -1.15579
H          3.59538        20.20685         0.56079
H          7.58740         0.29404        -0.45259
H          6.03695        20.28578         0.54592
H          9.96714         0.25811         0.37670
H          8.59751        20.35406         0.56141
H         12.32140         0.28422         0.85767
H         11.17228        20.36369         0.23506
H         14.76242         0.29599         0.75562
H         13.59605        20.34848         0.54320
H         17.22985         0.27734         0.64582
H         16.02348        20.35490         0.27835
H         19.67055         0.25562         0.31590
H         18.46753        20.36592         0.08561
H         22.11318         0.23144         0.08003
H         20.91983        20.33184         0.05392
H         24.57946         0.21478        -0.15130
H         23.35214        20.30174        -0.31257
H         27.04775         0.20086        -0.29495
H         25.96037        20.25321        -0.70479
H         29.52062         0.18659        -0.36720
H         28.31325        20.29908        -0.32498
H         31.66941         1.41396        -0.33487
H         32.91493         3.57089        -0.22885
H         32.94414         6.02800        -0.13851
H         32.89514         7.93176        -0.66261
H         32.93892        10.34807        -0.69084
H         32.96771        12.30111        -0.42173
H         32.94448        14.74440        -0.54672
H         32.80804        16.64194        -1.01620
H         30.72489        20.35540        -0.38218
H         32.81888        19.10643        -0.83945
