         621
 CSIRO Nanostructure Databank - Neutral Graphene Oxide Data Set
C          5.95849        31.65779         0.65168
C          5.98034        33.00604         0.72668
C          8.35005        27.36226         0.00872
C          8.30478        28.79407         0.01329
C          7.20560        29.42011         0.53823
C          8.45427        31.60693         0.59894
C          7.20116        30.85549         0.96944
C          8.45670        32.98125         0.82572
C          7.22946        33.74204         0.90761
C          8.50583        35.86342         0.97403
C          7.26780        35.12028         1.03153
C          8.52254        37.29493         1.08037
C         10.77752        23.11605        -0.13374
C         10.74270        24.50241        -0.21994
C          9.53321        25.23813        -0.17700
C         10.69430        27.37142        -0.89977
C          9.50572        26.64504        -0.28512
C         10.77024        28.85612        -0.61418
C          9.44566        29.58941        -0.61065
C         10.80202        31.62317        -0.12162
C          9.59941        30.95562         0.03573
C         11.01186        32.94656         0.44095
C          9.72410        33.69782         0.90555
C         10.94707        35.83871         0.48953
C          9.70918        35.15221         0.84008
C         10.91827        37.33547         0.49199
C          9.69844        38.04584         0.95064
C         10.93038        40.21712         0.86214
C          9.77156        39.44834         1.14997
C         10.99848        41.59909         1.05970
C         13.37582        18.82622         0.16667
C         13.21969        20.19077        -0.35531
C         12.02283        20.99585        -0.06115
C         13.25366        23.13025        -0.27253
C         12.01856        22.38960        -0.15651
C         13.29687        24.53731        -0.34772
C         12.01979        25.25964        -0.20930
C         13.28474        27.40110        -0.79879
C         12.01322        26.72638        -0.48734
C         13.29754        28.89963        -0.67019
C         11.92769        29.52568        -0.85916
C         13.09020        31.76518        -1.37833
C         11.88056        31.00529        -0.94153
C         13.19253        33.17088        -0.85307
C         12.18605        33.74891         0.03536
C         13.53148        35.83202         0.15602
C         12.21891        35.09707         0.32419
C         13.50036        37.32719         0.34871
C         12.22255        38.05099         0.60169
C         13.42658        40.25577         0.16278
C         12.14182        39.51869         0.35557
C         13.37642        41.70956         0.41687
C         12.20045        42.35437         0.82804
C         13.38463        44.55283         0.86313
C         12.23169        43.77575         1.04861
C         13.41917        45.94722         1.15328
C         16.02567        14.87002         1.31269
C         15.97464        16.17145         0.86033
C         14.68255        16.92655         1.05110
C         15.82553        18.85147        -0.17349
C         14.59176        18.21546         0.27039
C         15.80113        20.21870        -0.51120
C         14.50729        20.92927        -0.64244
C         15.80773        23.11316        -0.33114
C         14.51313        22.38003        -0.30149
C         15.81942        24.64165        -0.21540
C         14.49144        25.27402        -0.55431
C         15.73440        27.42783        -1.01368
C         14.48622        26.69561        -0.78018
C         15.65131        28.83142        -1.42413
C         14.47757        29.55822        -1.36036
C         15.67035        31.73928        -1.92125
C         14.33657        30.96701        -1.98075
C         15.74443        33.07528        -2.22185
C         13.98305        34.06445        -1.52185
C         15.62687        36.09062        -1.34530
C         14.27020        35.43804        -1.11808
C         15.79025        37.43909        -0.67846
C         14.72744        38.06090        -0.05566
C         15.91842        40.25664        -0.18823
C         14.76146        39.50854         0.40120
C         15.83958        41.74067        -0.20114
C         14.56802        42.48774         0.08330
C         15.74727        44.67785         0.15893
C         14.60830        43.93379         0.39448
C         15.77996        46.10231         0.41990
C         14.57522        46.71959         0.97327
C         15.76031        48.86492         1.27407
C         14.59776        48.08860         1.36210
C         15.83447        50.19745         1.74196
C         18.49247        10.72877         2.19317
C         18.43829        12.02261         1.61334
C         17.26046        12.78509         1.70612
C         18.36512        14.66378         0.56198
C         17.21360        14.09421         1.20304
C         18.29359        16.00517         0.09519
C         17.12862        16.76744         0.25501
C         18.23909        18.82668        -0.63594
C         17.07365        18.16348        -0.19241
C         18.22063        20.21734        -0.94143
C         16.99335        20.90881        -0.80132
C         18.18907        23.12772        -1.26234
C         16.92955        22.37515        -0.99800
C         18.19614        24.58708        -0.97813
C         17.03537        25.31507        -0.81309
C         18.19846        27.48127        -1.29356
C         16.97580        26.76365        -0.98310
C         18.19316        28.78382        -1.76844
C         16.89747        29.45521        -1.96482
C         18.19063        31.72894        -1.99291
C         16.93617        30.98882        -2.07008
C         18.17365        33.18905        -2.19846
C         16.90166        33.94934        -2.01681
C         18.14959        36.09456        -1.77666
C         16.86288        35.31128        -1.74854
C         18.20299        37.49789        -1.27150
C         17.03804        38.16562        -0.89132
C         18.21027        40.40447        -1.04125
C         17.01181        39.61020        -0.69743
C         18.28014        41.79772        -0.61224
C         17.11914        42.49366        -0.10166
C         18.15375        44.80348        -0.71913
C         17.05286        44.00593        -0.08514
C         18.12726        46.30139        -0.49769
C         16.92778        46.85213         0.20451
C         18.27924        48.93174         0.78549
C         16.93689        48.26946         0.59079
C         18.30151        50.04701         1.77125
C         17.07338        50.86728         1.92501
C         18.47860        52.84028         2.57369
C         17.20625        52.18857         2.34772
C         18.46829        54.26315         2.50517
C         20.96341         6.71871         3.54049
C         20.88220         7.90555         2.80187
C         19.73139         8.70087         2.82792
C         20.84097        10.51326         1.53847
C         19.66407         9.96616         2.17698
C         20.78506        11.77330         0.92804
C         19.59933        12.57396         0.95514
C         20.72996        14.50933        -0.20000
C         19.55787        13.89085         0.41708
C         20.69030        15.78198        -0.71914
C         19.36408        16.52987        -0.83620
C         20.52818        18.63692        -1.67138
C         19.55624        18.07021        -0.63008
C         20.63936        20.16995        -1.70583
C         19.41920        20.95846        -1.36930
C         20.66474        23.12905        -1.69958
C         19.43548        22.34134        -1.43062
C         20.72027        24.54499        -1.31833
C         19.49501        25.26513        -0.97183
C         20.73478        27.36173        -1.66314
C         19.48029        26.77610        -1.12655
C         20.75898        28.80974        -2.03531
C         19.43212        29.50522        -2.16542
C         20.76393        31.74719        -2.05608
C         19.45856        31.03197        -2.24685
C         20.74792        33.12857        -1.99139
C         19.50021        33.90064        -2.22637
C         20.77117        36.04854        -1.62761
C         19.48533        35.39024        -2.01374
C         20.70526        37.46197        -1.31007
C         19.49714        38.15546        -1.23521
C         20.69987        40.35005        -0.51751
C         19.52351        39.64976        -1.19379
C         20.78090        41.87393        -0.71132
C         19.47886        42.57459        -0.95104
C         20.72530        44.85141        -1.16906
C         19.42587        44.06764        -1.08000
C         20.73353        46.29988        -0.75302
C         19.45643        47.03774        -0.44123
C         20.74840        48.79778         0.77062
C         19.54689        48.23409         0.45718
C         20.88225        49.97499         1.66762
C         19.61812        50.62195         2.16786
C         20.95984        52.56348         2.83894
C         19.66554        52.02653         2.60581
C         20.88887        54.72626         2.75050
C         19.59635        55.13521         2.33396
C         20.73220        57.14797         1.46628
C         19.55298        56.38610         1.66667
C         20.70903        58.36236         0.71376
C         23.46714         4.12238         4.57929
C         22.24207         4.78164         4.38960
C         23.38772         6.52665         3.09938
C         22.17756         5.98077         3.65614
C         23.35444         7.72166         2.33616
C         22.02028         8.27469         1.87445
C         23.24785        10.31812         1.08377
C         22.06493         9.74955         1.53046
C         23.28277        11.65750         0.56040
C         21.98515        12.28085         0.24260
C         23.27620        14.36632        -0.43033
C         21.97192        13.68845        -0.31369
C         23.25655        15.74620        -0.97265
C         21.92541        16.43306        -1.24658
C         23.12412        18.72510        -1.16566
C         21.90371        17.91579        -1.56829
C         23.22057        20.17373        -1.45066
C         21.97832        20.88539        -1.81054
C         23.23128        23.08556        -1.41270
C         22.00146        22.38655        -1.79778
C         23.19759        24.50947        -1.33247
C         21.94942        25.22954        -1.33086
C         23.18570        27.39021        -1.36494
C         21.98943        26.66485        -1.33920
C         23.18856        28.84062        -1.51486
C         22.01169        29.56150        -1.80811
C         23.24386        31.68374        -1.72624
C         22.01309        30.99806        -1.88591
C         23.31060        33.13673        -2.00747
C         21.99770        33.91205        -2.07422
C         23.27514        36.09888        -1.83330
C         21.97161        35.36703        -1.77291
C         23.27083        37.56879        -1.57754
C         21.99348        38.17473        -1.08183
C         23.25922        40.38417        -1.22575
C         22.03151        39.63453        -0.76986
C         23.29211        41.87834        -1.25278
C         22.04735        42.63478        -0.90658
C         23.30749        44.81644        -0.88517
C         22.02657        44.11450        -1.19188
C         23.30514        46.12086        -0.46087
C         21.99078        46.70711         0.06172
C         23.28478        48.96995         0.27298
C         21.99675        48.22834         0.18879
C         23.34795        50.31360         0.90768
C         22.16799        50.78074         1.67302
C         23.26951        53.08619         1.90861
C         22.13602        52.15997         2.20873
C         23.36578        54.52622         2.42076
C         22.09158        55.31842         2.33680
C         23.24445        57.48151         1.91814
C         22.01611        56.61353         1.82530
C         23.16021        58.73749         1.04815
C         21.87780        59.07043         0.38352
C         23.07366        60.65297        -1.08010
C         21.87186        60.11312        -0.56007
C         24.64612         4.65394         4.07889
C         25.83140         6.45739         2.85921
C         24.63742         5.87416         3.34127
C         25.81061         7.67075         2.15302
C         24.54335         8.27703         1.86116
C         25.79942        10.24433         0.79083
C         24.49614         9.52197         1.07227
C         25.75524        11.70891         0.60214
C         24.47664        12.34990         0.33789
C         25.80237        14.42447        -0.30183
C         24.45721        13.73030        -0.11101
C         25.70744        15.93640        -0.26043
C         24.51188        16.55455        -0.84974
C         25.66444        18.79827        -0.70717
C         24.39491        18.03960        -0.74837
C         25.65603        20.19117        -0.93542
C         24.40694        20.87941        -1.23298
C         25.65935        23.02168        -1.08953
C         24.42308        22.33246        -1.25424
C         25.61643        24.48756        -0.88039
C         24.38856        25.25273        -1.13966
C         25.65062        27.40277        -1.08598
C         24.41210        26.66547        -1.17093
C         25.63213        28.82985        -1.15794
C         24.43626        29.54559        -1.34177
C         25.65029        31.70200        -1.04926
C         24.45300        30.99364        -1.39859
C         25.68520        33.14580        -1.03916
C         24.59444        33.86865        -1.71652
C         25.69582        36.05859        -0.93459
C         24.58877        35.38082        -1.65753
C         25.68620        37.50967        -0.82877
C         24.52759        38.25744        -1.14558
C         25.75583        40.38663        -0.90757
C         24.54673        39.66229        -1.08193
C         25.76729        41.86134        -0.94553
C         24.58661        42.57808        -1.10611
C         25.85168        44.77878        -0.77893
C         24.55892        44.05843        -1.13816
C         25.78635        46.17399        -0.29558
C         24.55447        46.83974        -0.20791
C         25.75337        48.95003         0.23270
C         24.56252        48.23460         0.11783
C         25.72990        50.46569         0.21284
C         24.50040        51.03142         0.89712
C         25.79588        53.19125         1.30633
C         24.49196        52.47983         1.24578
C         25.83265        54.55039         1.61796
C         24.62182        55.28004         2.09000
C         25.72980        57.39761         1.40053
C         24.54672        56.71674         1.76489
C         25.70674        58.64563         0.78793
C         24.43971        59.33206         0.48894
C         24.31274        60.22606        -0.66263
C         27.03313         8.34919         1.82076
C         28.24177        10.40603         1.20111
C         27.05347         9.63121         1.28602
C         28.19567        11.77484         0.90538
C         26.92353        12.43276         0.70673
C         28.16969        14.67829         0.60706
C         26.84057        13.93672         0.71960
C         28.05206        16.06489         0.45530
C         26.82667        16.69926        -0.01871
C         28.09232        18.83205        -0.39045
C         26.85500        18.12342        -0.35447
C         28.12427        20.22272        -0.66903
C         26.89271        20.90927        -0.88503
C         28.16580        23.05302        -1.10160
C         26.87483        22.33550        -1.00410
C         28.16839        24.55368        -1.08800
C         26.89084        25.25957        -0.80714
C         28.10373        27.40468        -0.69033
C         26.87626        26.71773        -0.96192
C         28.09216        28.78773        -0.63266
C         26.95306        29.56298        -1.23834
C         27.99934        31.66450        -0.29115
C         26.86399        30.99544        -0.76252
C         27.86584        33.10731         0.16741
C         26.77608        33.86152        -0.55592
C         27.94541        35.98362         0.13526
C         26.78353        35.30061        -0.50109
C         28.01480        37.49600         0.08531
C         26.86117        38.22897        -0.47891
C         28.24092        40.29572        -0.51678
C         26.92040        39.62831        -0.61591
C         28.26797        41.81508        -0.52375
C         26.99831        42.57981        -0.63175
C         28.17541        44.66057         0.11763
C         27.00560        43.94605        -0.43340
C         28.23788        46.14443         0.05783
C         27.00299        46.85702        -0.00084
C         28.23517        48.96179         0.40330
C         26.99992        48.26538         0.20004
C         28.22009        50.38581         0.65284
C         27.01381        51.09955         0.69969
C         28.26214        53.17148         1.18109
C         27.01027        52.47850         1.04918
C         28.25125        54.58545         1.37252
C         27.06461        55.26863         1.55682
C         27.05843        56.76490         1.76950
C         29.38757        12.54132         0.77658
C         30.72198        14.49616         0.28508
C         29.42191        13.93487         0.62583
C         31.07228        15.80906         0.53659
C         29.17349        16.93948         0.62823
C         30.63752        18.74424        -0.40674
C         29.30234        18.17616         0.04029
C         30.62172        20.25719        -0.34518
C         29.40037        20.93866        -0.58087
C         30.62236        23.07710        -0.64084
C         29.42682        22.35142        -0.75912
C         30.68412        24.55543        -0.98089
C         29.39290        25.28729        -0.75808
C         30.55690        27.32589        -0.10961
C         29.34163        26.64200        -0.48095
C         30.47401        28.72987         0.33225
C         29.19761        29.49366         0.00679
C         30.41402        31.61720         0.31263
C         29.22215        30.96579        -0.02762
C         30.38168        33.06919         0.52832
C         29.18434        33.84889         0.22691
C         30.45335        35.96765         0.42894
C         29.22432        35.23487         0.27060
C         30.47309        37.39978         0.46291
C         29.33115        38.16804         0.21921
C         30.59066        40.30322         0.30686
C         29.41100        39.59245         0.04975
C         30.63598        41.74562         0.26049
C         29.47203        42.45449         0.00890
C         30.72580        44.61440         0.25532
C         29.42978        43.89102         0.32393
C         30.73444        46.10235         0.23379
C         29.43833        46.82859         0.25725
C         30.71103        48.93067         0.66743
C         29.44982        48.24439         0.42295
C         30.68650        50.32405         0.86857
C         29.47371        51.06144         0.88189
C         29.47059        52.45611         1.08641
C         32.11384        16.66137         0.08190
C         33.10426        18.86095         0.01169
C         31.94998        18.07301         0.02542
C         33.09317        20.27770        -0.09396
C         31.83342        20.97848        -0.26268
C         33.08217        23.12965        -0.28412
C         31.84102        22.39650        -0.37911
C         33.07245        24.54526        -0.26997
C         31.87127        25.26318        -0.38782
C         32.94690        27.32406         0.56317
C         31.77705        26.64626        -0.06152
C         32.94485        28.81071         0.61602
C         31.72919        29.50329         0.47530
C         32.91508        31.64663         0.39343
C         31.67206        30.92488         0.46526
C         32.92809        33.05326         0.16954
C         31.74166        33.82339         0.47023
C         32.92704        35.97164         0.26566
C         31.71348        35.29127         0.34282
C         33.07406        37.34215         0.87177
C         31.73121        38.08109         0.86064
C         33.10229        40.25954         0.88285
C         31.76048        39.58144         0.85047
C         33.12957        41.74888         0.86083
C         31.85241        42.47863         0.64938
C         33.17446        44.55974         1.08758
C         31.91026        43.84141         0.66335
C         33.13192        46.05920         0.89090
C         31.98499        46.79103         0.64839
C         31.92697        48.21033         0.75853
C         34.28931        21.00437        -0.01799
C         35.53945        23.12560         0.08576
C         34.31729        22.41890        -0.08867
C         35.60103        24.52637         0.10634
C         34.36191        25.32299        -0.23613
C         35.52862        27.33061         0.80438
C         34.24636        26.58052         0.60317
C         35.47659        28.84250         0.80205
C         34.17074        29.53544         0.62012
C         35.40050        31.61370         0.04296
C         34.14000        30.91846         0.40664
C         35.40263        33.03665        -0.39969
C         34.09106        33.75893        -0.36465
C         35.40004        36.02299        -0.30980
C         34.10935        35.30137        -0.25206
C         35.43505        37.39785        -0.13041
C         34.24983        38.13353         0.29153
C         35.49892        40.26461         0.10967
C         34.29199        39.50501         0.41530
C         35.50677        41.68016         0.11282
C         34.37208        42.46913         0.44858
C         34.37160        43.84952         0.48836
C         36.79388        25.24544         0.29405
C         37.97404        27.42714         0.41528
C         36.80942        26.66279         0.46571
C         37.95510        28.86617         0.44511
C         36.73943        29.54487         0.53909
C         37.95292        31.77837         0.23282
C         36.69168        31.00983         0.47750
C         37.88551        33.17822        -0.27259
C         36.67528        33.81470        -0.41822
C         37.95086        36.03142        -0.73132
C         36.60378        35.26531        -0.71008
C         37.90162        37.45634        -0.43045
C         36.69419        38.13139        -0.26175
C         36.67927        39.55016        -0.15440
C         39.17569        29.62507         0.22976
C         40.40295        31.75388        -0.16442
C         39.19695        30.99445         0.08776
C         40.38247        33.10746        -0.32015
C         39.15365        33.88598        -0.38839
C         39.17971        35.25292        -0.53227
O         33.39007        26.56559         1.76380
O         21.80071        12.53546        -1.20285
O         17.74282        45.70703        -1.77795
O         10.74950        36.66175        -0.78678
O         21.34483        22.91919        -2.98384
O         11.94838        31.59696        -2.29811
O         20.77356        27.75840        -3.07447
O         12.01370        26.25250         0.91095
O         15.02499        42.21821        -1.32282
O         21.79112        46.15471         1.33038
O         19.28472        43.22425        -2.26260
O         37.21335        35.67395        -1.96437
O         23.42624        18.45983         0.27511
O         14.48891        36.28658        -2.27062
O         25.12759         9.45382        -0.24913
O         31.09704        33.44557         1.74054
O         28.23982        23.83829        -2.38177
O         21.85978        49.77699         2.73544
O         18.89767        40.21797        -2.35273
O         12.61400        39.85891        -0.99056
O         20.17471        47.21894        -1.70886
O         33.82764        34.59171        -1.52783
O         16.79163        30.09288        -3.25704
O         24.26231        54.84943         3.50726
O         23.46381        53.17260         0.43631
O         13.70119        20.46564        -1.74809
O         27.61608        36.77496         1.31918
O         18.88530        49.68971         3.06608
O         24.16515        15.91918        -2.13006
O         23.11178        41.09831        -2.49343
O         28.55783        41.03484        -1.74368
O         29.47845        28.97409         1.37399
O         19.39164        30.18343        -3.45330
O         21.53019        42.40879         0.44623
O         35.41437        31.94683        -1.39942
O         30.20823        16.47929         1.43101
O         15.37740        22.51151         0.92928
O         18.80537        36.06916        -3.10095
O         19.66999        26.18295         0.18629
O         10.48610        27.34077        -2.29120
O         13.05282        37.65540         1.74784
O         21.96898        16.93926        -2.63236
O         21.00903        53.69952         3.66750
O         22.26668        38.66259         0.28919
O         23.28090        37.08501        -2.94163
O         22.46684        48.97010        -0.97624
O         17.50085        49.20107        -0.41399
O         21.41600        44.57666        -2.42997
O         22.74939        33.53563        -3.28392
O         17.43267        43.26892         1.13412
O         26.23505        24.82378         0.43957
O         37.35726        31.68941         1.59532
O         10.68080        33.10683         1.85263
O         17.20186        22.83086        -2.35183
O         31.50883        38.84360         2.09924
O         21.26336        20.45403        -3.01244
O         35.55877        28.05979         2.05698
O         18.86019        33.51630        -3.47674
O         14.58041        33.67733        -2.71005
O         25.41903        44.63073        -2.17441
O         30.91796        45.33096        -1.02042
O         25.05389        34.67040        -2.84944
O         28.57485        44.19167         1.48287
O         33.28969        41.02824         2.13204
O         23.76205        59.88689         1.71605
O         23.21886        57.93707         3.30863
H         23.61888        58.84089         3.30407
O          7.21548        30.75699         2.44458
H          7.31392        31.66816         2.79567
O         27.26739        29.64599        -2.68183
H         26.51287        30.09072        -3.12516
O         21.71967         7.58674         0.61398
H         22.42212         7.82326        -0.02930
O         20.17898        18.27278         0.66006
H         19.55643        17.97473         1.35613
O          9.09985        29.74353        -2.01073
H          9.46021        28.92848        -2.46153
O         26.29494        14.31087         2.02455
H         26.96063        14.08360         2.70718
O         25.63347        50.84852        -1.19625
H         24.80160        50.46996        -1.55492
O         30.64339        18.43724        -1.85533
H         29.90654        18.93747        -2.26818
O         33.29692        44.39087         2.54330
H         33.35350        43.42794         2.73181
O         30.89774        24.60125        -2.44454
H         30.05432        24.27788        -2.85051
O         14.05573        30.73316        -3.36641
H         13.08342        30.85828        -3.49826
O         27.30936        57.04613         3.15920
H         26.56810        56.67352         3.68198
O         27.41492        33.01806         1.56374
H         28.14410        32.62821         2.09270
O         18.82554        16.21592        -2.13623
H         19.39209        16.65099        -2.81999
O         14.42650        35.31640         1.19515
H         14.06358        35.61494         2.05835
O         33.43633        37.10791         2.26107
H         32.96448        37.79498         2.79207
O         13.55924        16.08075         0.78358
H         13.59622        15.81192        -0.15732
O         13.56826        29.11501         0.77587
H         13.06055        28.43706         1.27624
O         34.56848        25.83535        -1.59497
H         34.48211        25.08480        -2.22022
O         26.27420        14.09612        -1.62838
H         25.61843        14.46896        -2.26423
O         20.35965        40.17276         0.87670
H         21.00275        40.69133         1.41091
O         15.98236        24.95621         1.20744
H         15.54638        24.22274         1.70512
O         14.97123        39.54024         1.84379
H         14.34299        38.88552         2.23933
O         19.96119        18.32785        -2.95757
H         20.49411        18.80539        -3.63431
H          5.00887        31.12374         0.49858
H          5.05515        33.58747         0.59488
H          7.48339        26.82352         0.42944
H          6.36276        28.80376         0.89408
H          6.32446        35.68438         1.07934
H          7.57925        37.81196         1.31132
H          9.83550        22.54974        -0.08427
H          8.58618        24.68992        -0.04581
H          8.87172        39.97561         1.50146
H         10.10719        42.13345         1.42048
H         12.49552        18.33060         0.60447
H         11.07518        20.47047         0.13272
H         11.31001        44.26903         1.39151
H         12.51497        46.42736         1.55629
H         15.12948        14.41950         1.76316
H         14.61050        17.19930         2.14389
H         13.69006        48.52595         1.80428
H         14.90767        50.69823         2.06082
H         17.59164        10.32918         2.68217
H         16.37491        12.35992         2.20050
H         16.29885        52.80720         2.42586
H         17.48405        54.71446         2.29881
H         20.08283         6.37984         4.10858
H         18.85910         8.36235         3.40864
H         18.59428        56.77773         1.29892
H         19.75172        58.69452         0.28413
H         23.49069         3.18179         5.14717
H         21.32170         4.36110         4.81947
H         23.00434        61.37592        -1.90543
H         20.91289        60.43250        -0.99276
H         25.60242         4.13919         4.25001
H         26.79411         5.96836         3.06922
H         26.65053        59.12372         0.48682
H         25.22215        60.54881        -1.18941
H         27.98153         7.88588         2.13229
H         29.20814         9.93525         1.43554
H         29.20637        55.13082         1.38530
H         27.88890        57.23704         1.18803
H         30.34410        11.99722         0.78193
H         31.43026        13.83373        -0.23480
H         31.63248        50.85650         1.04920
H         30.42577        52.99081         1.19454
H         33.10427        16.24142        -0.15695
H         34.07617        18.36813         0.17172
H         34.04599        46.60428         1.17616
H         32.84853        48.76187         1.00012
H         35.23586        20.46117         0.12232
H         36.45572        22.54686         0.27946
H         36.44735        42.19449        -0.13569
H         35.27745        44.41589         0.22525
H         37.75185        24.70241         0.31063
H         38.93677        26.92333         0.24021
H         38.84743        38.01113        -0.33619
H         37.61883        40.10144        -0.30700
H         40.11766        29.06326         0.13519
H         41.36194        31.21518        -0.18633
H         41.32887        33.65049        -0.46038
H         40.13940        35.79053        -0.49287
