         424
 CSIRO Nanostructure Databank - Neutral Graphene Oxide Data Set
C          1.41177         1.97979        -1.46831
C          1.33459         3.36477        -1.23321
C          2.62171         1.32181        -1.35722
C          2.47048         4.10087        -0.88344
C          1.24092         6.35848        -0.99997
C          1.24408         7.71505        -0.84855
C          2.35431         5.53957        -0.52772
C          2.41223         8.45438        -0.45340
C          1.17379        10.61612        -0.13109
C          1.16144        12.02226         0.09067
C          2.34670         9.89089        -0.24429
C          2.31528        12.77441         0.24110
C          1.13314        14.96565         0.43376
C          1.14541        16.34667         0.55043
C          2.33399        14.22614         0.33396
C          2.36542        17.05594         0.53646
C          2.38198        18.50077         0.68342
C          3.80524         2.04046        -1.02941
C          3.73318         3.45093        -0.78607
C          5.04823         1.37129        -0.95775
C          4.95200         4.18282        -0.53116
C          3.66227         6.31456        -0.20789
C          3.64327         7.77986        -0.32050
C          4.93799         5.59698        -0.35003
C          4.90285         8.46965        -0.32466
C          3.62012        10.57933         0.03072
C          3.60512        12.06769         0.29307
C          4.87727         9.96968        -0.55242
C          4.86450        12.82534         0.16229
C          3.57664        14.93183         0.33628
C          3.57687        16.34180         0.41838
C          4.84849        14.21191         0.26466
C          4.85555        17.11627         0.19307
C          3.54424        19.18933         0.81551
C          4.83192        18.51851         0.75764
C          6.24493         2.07331        -0.72007
C          6.20132         3.50449        -0.54242
C          7.48891         1.40148        -0.68815
C          7.42084         4.23071        -0.38336
C          6.14331         6.33244        -0.33281
C          6.10160         7.77658        -0.30720
C          7.39865         5.64870        -0.33271
C          7.37906         8.54164        -0.56480
C          6.11301        10.70325        -0.09786
C          6.10190        12.07236         0.13213
C          7.37625         9.91671         0.11765
C          7.34491        12.79427         0.36261
C          6.09244        14.93324         0.42426
C          6.09843        16.34347         0.56462
C          7.32068        14.20862         0.53741
C          7.29273        17.03357         0.80679
C          5.97206        19.15880         1.11402
C          7.31559        18.49080         1.21692
C          8.69795         2.09767        -0.47617
C          8.67370         3.53168        -0.31090
C          9.93267         1.41488        -0.45379
C          9.87410         4.23626        -0.06707
C          8.63741         6.38403        -0.19137
C          8.64263         7.78728        -0.21596
C          9.86112         5.66853         0.03647
C          9.84208         8.51437         0.09088
C          8.64781        10.71569        -0.23767
C          8.58705        12.12157         0.32348
C          9.84946         9.91088         0.18378
C          9.78193        12.81610         0.53126
C          8.54899        14.92290         0.68689
C          8.53574        16.34816         0.78023
C          9.78592        14.21940         0.70985
C          9.76787        17.08407         0.74695
C          8.44113        19.24717         0.49055
C          9.76284        18.51365         0.64134
C         11.14900         2.10218        -0.24474
C         11.12575         3.52446        -0.01014
C         12.38486         1.41721        -0.23900
C         12.33261         4.20839         0.23236
C         11.05555         6.38621         0.32567
C         11.06091         7.78214         0.37651
C         12.29279         5.62885         0.74032
C         12.30312         8.51835         0.58893
C         10.97819        10.61850         0.87651
C         11.08501        12.07453         0.38768
C         12.30098         9.89639         0.73838
C         12.22511        12.78698         1.10986
C         11.03200        14.95048         0.76119
C         11.00740        16.38155         0.72421
C         12.26444        14.26376         0.78561
C         12.23408        17.10003         0.65605
C         10.95516        19.20815         0.58293
C         12.22059        18.53458         0.60310
C         13.59815         2.10570        -0.05317
C         13.56865         3.52770         0.17628
C         14.84526         1.42504        -0.07146
C         14.80689         4.24514         0.30402
C         13.57274         6.39111         0.49089
C         13.56253         7.79104         0.53932
C         14.80151         5.67753         0.41110
C         14.79477         8.52011         0.51953
C         13.53644        10.65883         0.80078
C         13.51671        12.04624         0.88858
C         14.79902         9.94467         0.65363
C         14.75416        12.82861         0.99037
C         13.48516        14.96872         0.70061
C         13.46954        16.39807         0.61258
C         14.74598        14.28000         0.70413
C         14.69527        17.11200         0.49898
C         13.43582        19.23171         0.53315
C         14.67477        18.54359         0.46645
C         16.05985         2.10571         0.09520
C         16.03932         3.54953         0.25909
C         17.29982         1.41268         0.03291
C         17.25915         4.26677         0.36690
C         16.03482         6.39056         0.38053
C         16.02698         7.81851         0.41056
C         17.27525         5.67891         0.36651
C         17.25714         8.53889         0.29453
C         16.02229        10.63712         0.60463
C         16.06613        12.08526         0.85630
C         17.24803         9.96053         0.34227
C         17.26188        12.84724         0.46702
C         15.94263        14.96393         0.46775
C         15.92778        16.40779         0.35214
C         17.21008        14.25152         0.35104
C         17.11516        17.13295         0.10535
C         15.90546        19.23541         0.33567
C         17.09981        18.54373         0.13061
C         18.53363         2.07057         0.18814
C         18.51499         3.51431         0.50712
C         19.76766         1.42233         0.04071
C         19.82545         4.28749         0.41614
C         18.51931         6.41076         0.24829
C         18.49058         7.83740         0.13953
C         19.75474         5.73424         0.16964
C         19.69435         8.56004        -0.11729
C         18.47029        10.69579         0.18548
C         18.46643        12.13478         0.23415
C         19.67983        10.00904        -0.09582
C         19.67991        12.86640         0.10982
C         18.41788        14.96681         0.09461
C         18.33480        16.40228        -0.39331
C         19.63981        14.28912         0.08379
C         19.62589        17.19042        -0.27128
C         18.34894        19.34623        -0.13513
C         19.62736        18.53854        -0.21913
C         21.01048         2.12612        -0.04653
C         21.04536         3.55955         0.03364
C         22.20414         1.43644        -0.33515
C         22.21926         4.27720        -0.23382
C         20.95063         6.43345        -0.14831
C         20.89492         7.83964        -0.33026
C         22.20363         5.72724        -0.28013
C         22.11143         8.53630        -0.75660
C         20.88436        10.75606        -0.25459
C         20.91489        12.15552        -0.08239
C         22.11069        10.07449        -0.69437
C         22.15746        12.88068        -0.19234
C         20.92281        15.07837         0.20961
C         20.89314        16.40591        -0.55511
C         22.17330        14.29313        -0.12388
C         22.16819        17.17863        -0.30315
C         20.88919        19.37376        -0.31135
C         22.17677        18.58868        -0.26468
C         23.41545         2.12888        -0.56403
C         23.43394         3.56035        -0.51885
C         24.62808         1.42946        -0.83306
C         24.64885         4.25124        -0.75702
C         23.40261         6.44335        -0.49149
C         23.39616         7.83684        -0.68897
C         24.74388         5.73406        -0.46101
C         24.61687         8.59174        -0.79044
C         23.40245        10.75131        -0.52978
C         23.39487        12.16690        -0.34004
C         24.60597        10.03002        -0.63780
C         24.62472        12.87071        -0.31939
C         23.37969        15.00718        -0.23621
C         23.38293        16.46027        -0.23742
C         24.62488        14.30245        -0.29214
C         24.61734        17.16320        -0.22748
C         23.38561        19.28204        -0.20263
C         24.63146        18.59493        -0.22177
C         25.80345         2.11431        -1.09636
C         25.80441         3.53693        -1.08997
C         27.08856         1.38214        -1.41812
C         27.08431         4.24722        -1.34951
C         25.73840         6.46361        -1.39040
C         25.83773         7.91269        -0.95950
C         27.08758         5.74069        -1.44274
C         27.08480         8.58987        -0.88413
C         25.86074        10.72167        -0.53457
C         25.86301        12.14846        -0.34936
C         27.08038        10.01758        -0.63701
C         27.07919        12.84446        -0.19840
C         25.84712        15.01058        -0.31560
C         25.85834        16.45032        -0.28679
C         27.09061        14.29145        -0.21114
C         27.07046        17.15431        -0.34417
C         25.86885        19.28337        -0.25349
C         27.09941        18.58580        -0.32850
C         28.32407         2.12894        -0.95393
C         28.33305         3.54443        -0.99934
C         29.48863         1.44665        -0.62659
C         29.51412         4.28501        -0.74131
C         28.33357         6.45385        -1.06580
C         28.30679         7.87478        -0.95681
C         29.49353         5.72861        -0.77436
C         29.60166         8.63466        -1.10374
C         28.31993        10.71886        -0.46140
C         28.32196        12.13175        -0.20780
C         29.54851        10.03716        -0.55406
C         29.54294        12.82174        -0.04627
C         28.29170        14.98177        -0.15809
C         28.33956        16.40203        -0.62579
C         29.52174        14.28271         0.33148
C         29.59490        17.14439        -0.27389
C         28.34986        19.26484        -0.40110
C         29.59486        18.56831        -0.36091
C         30.69331         2.14949        -0.32695
C         30.70363         3.57778        -0.39061
C         31.86705         1.43912         0.02100
C         31.92604         4.29520        -0.09742
C         30.65035         6.47350        -0.15347
C         30.84507         7.88894        -0.66630
C         31.92706         5.68471        -0.08058
C         32.04119         8.55978        -0.62133
C         30.76595        10.72291        -0.38915
C         30.77677        12.14072        -0.13260
C         32.00373        10.03248        -0.63432
C         32.01459        12.85131         0.02268
C         30.80346        15.00964         0.03067
C         30.80790        16.42536        -0.12111
C         32.01901        14.30210         0.13007
C         32.05678        17.12009        -0.17181
C         30.84189        19.24571        -0.41247
C         32.06637        18.53865        -0.37063
C         33.08465         2.10860         0.29890
C         33.12288         3.54026         0.21738
C         34.24971         1.39551         0.68505
C         34.33818         4.21783         0.49190
C         33.13267         6.47705         0.33487
C         33.35755         7.74427        -0.53268
C         34.38112         5.64347         0.47500
C         34.58578         8.45221         0.03489
C         33.13195        10.85082        -0.72793
C         33.23679        12.17394        -0.19724
C         34.90656         9.79918        -0.26933
C         34.51596        12.77752         0.12392
C         33.25532        14.99051         0.16783
C         33.28119        16.40331        -0.01162
C         34.46091        14.20914         0.65418
C         34.51531        17.11593        -0.11025
C         33.32252        19.19357        -0.52662
C         34.52499        18.48820        -0.42835
C         35.46646         2.05716         0.96115
C         35.52103         3.48429         0.82273
C         36.63091         1.36629         1.41281
C         36.75142         4.16306         1.05558
C         35.55785         6.31470         0.79808
C         35.57649         7.75887         0.73465
C         36.77546         5.60148         1.06299
C         36.69306         8.45794         1.29037
C         35.74376        10.62058         0.47374
C         35.68210        12.05003         0.39311
C         36.82698         9.97892         1.32331
C         36.95673        12.77714         0.81092
C         35.78148        14.95406         0.47775
C         35.79405        16.40832         0.11017
C         36.99557        14.16164         0.22112
C         37.01105        16.94866        -0.52905
C         35.84792        19.21357        -0.55663
C         37.00494        18.31127        -0.93867
C         37.83136         2.04164         1.66613
C         37.90587         3.44741         1.43743
C         39.02293         1.36365         2.14100
C         39.20357         4.13460         1.49926
C         37.90730         6.31598         1.49626
C         37.69944         7.68337         1.82797
C         39.24643         5.69431         1.49456
C         39.66315         8.70630         1.73499
C         38.14902        10.46293         0.62176
C         38.19207        11.96692         0.48741
C         39.50764         9.90689         1.03730
C         39.34564        12.54755        -0.05223
C         38.14095        14.73077        -0.30472
C         38.13774        16.12981        -0.72866
C         39.34229        13.93391        -0.47874
C         39.29551        16.67648        -1.36155
C         38.12306        18.83757        -1.56356
C         39.27713        18.03799        -1.79449
C         40.19623         2.02667         2.36912
C         40.35460         3.43217         2.08479
C         41.51657         4.13915         2.34010
C         40.53981         6.36413         1.85152
C         40.72875         7.80227         1.55320
C         41.61536         5.55150         2.15348
C         41.84742         8.33028         0.86694
C         40.64624        10.42394         0.36565
C         40.55446        11.75724        -0.22319
C         41.82707         9.63410         0.36870
C         41.65163        12.34953        -0.86487
C         40.47925        14.48771        -1.11020
C         40.46564        15.87933        -1.56846
C         41.61699        13.66924        -1.30657
C         41.56803        16.46171        -2.20362
C         40.42095        18.58391        -2.43394
C         41.54284        17.80074        -2.63294
O          2.77802         5.80178         0.84281
O         15.55385        12.47535         2.18823
O         19.27020         3.86930         1.71544
O         21.95128         9.36019        -1.96344
O         38.65477         8.31936         2.63285
O         39.46505         4.89769         0.28094
O          3.73055        11.06855         1.39389
O         27.19773         4.93296        -2.67160
O         34.25483        10.34414        -1.39306
O         35.98827        15.98290         1.52855
O         30.21842         6.69166         1.24687
H         31.01065         7.06013         1.71475
O         25.16561         6.47291        -2.71279
H         25.71509         5.86956        -3.26855
O         34.22425        14.07541         2.08927
H         34.75751        14.77740         2.52842
O         18.16747        20.06659        -1.38308
H         17.88791        19.41354        -2.05924
O         11.41427        12.04290        -1.02020
H         10.61380        11.72372        -1.50485
O         28.40766        16.30983        -2.12254
H         28.29894        17.22355        -2.46549
O         27.18316         1.21487        -2.84818
H         27.23244         2.10686        -3.25198
O         36.16118        19.82800         0.71169
H         36.24138        19.11397         1.37821
O          4.79344        10.15459        -2.00386
H          5.62964         9.78998        -2.37938
O         33.67162         7.33366        -1.87927
H         33.94689         8.13312        -2.37704
O          7.45033         9.63045         1.54016
H          7.36402        10.47574         2.02968
O          8.77953        10.94582        -1.67757
H          8.48914        10.12168        -2.14266
O         20.86778        16.06932        -1.97871
H         21.10272        16.87971        -2.47946
O          4.95029        17.29331        -1.26741
H          4.83481        16.40979        -1.67738
O         36.77084        10.42536         2.67742
H         37.44904         9.92301         3.18032
O         36.91684        12.99576         2.25841
H         37.66932        13.57918         2.49005
O         37.98968         9.93374        -0.74363
H         38.74752        10.25454        -1.27858
O         25.28217         5.85093         0.88739
H         24.66695         5.39816         1.50168
O          7.69277        18.52360         2.62569
H          7.03043        18.00580         3.12897
O          8.13089        19.38451        -0.90069
H          7.89609        18.50202        -1.25554
O         12.19257         5.51003         2.20972
H         12.97384         5.00092         2.51449
O         10.59577        10.63353         2.28438
H         10.51676         9.70214         2.58058
O         20.87512        20.12051        -1.53767
H         19.94761        20.43681        -1.67392
O         21.02315        15.44663         1.61915
H         21.05496        14.62142         2.14689
O         29.73516         8.80319        -2.56712
H         30.55387         9.32080        -2.72479
O         11.97164        12.74015         2.54184
H         12.79671        13.00163         3.00198
O         18.12032        16.26459        -1.84525
H         18.97348        15.92426        -2.21460
O          7.37750         8.75195        -2.03291
H          7.47604         7.86903        -2.45050
O         29.42307        14.30498         1.81464
H         30.21964        13.84943         2.16381
O         32.85976         7.01565         1.68710
H         32.99896         6.28620         2.32813
H          0.49985         1.42369        -1.72608
H          0.35613         3.86013        -1.29701
H          2.68621         0.23833        -1.53201
H          0.39322         5.87343        -1.50472
H          0.35445         8.28139        -1.15938
H          0.20377        10.11455        -0.25744
H          0.18098        12.51874         0.08872
H          0.16811        14.44147         0.44040
H          0.19988        16.89955         0.64558
H          1.41620        19.02320         0.74823
H          5.08386         0.28429        -1.12296
H          3.53148        20.27207         1.01096
H          7.51343         0.31099        -0.83034
H          5.91509        20.20045         1.46959
H          9.94843         0.32553        -0.60652
H          8.52983        20.27843         0.91308
H         12.39809         0.32861        -0.39639
H         10.94297        20.30521         0.49634
H         14.85460         0.33625        -0.22866
H         13.43063        20.33118         0.49298
H         17.29081         0.33082        -0.16756
H         15.90916        20.33528         0.33038
H         19.77720         0.33557        -0.13216
H         18.46694        20.13316         0.65792
H         22.19133         0.33878        -0.40401
H         20.88264        20.10503         0.55876
H         24.62199         0.32928        -0.83179
H         23.37771        20.38147        -0.18213
H         27.06658         0.35554        -0.97489
H         25.87229        20.38360        -0.24049
H         29.49475         0.34658        -0.61340
H         28.35729        20.36407        -0.43403
H         31.83170         0.34109         0.07509
H         30.85539        20.33999        -0.52212
H         34.19641         0.30088         0.78176
H         33.34359        20.27630        -0.71965
H         36.58123         0.27695         1.56000
H         35.75478        20.04680        -1.29799
H         38.95849         0.28429         2.34283
H         38.13573        19.89472        -1.86795
H         41.06592         1.47853         2.76162
H         42.39587         3.60390         2.72785
H         42.59396         6.01975         2.33557
H         42.73687         7.70463         0.70544
H         42.73340        10.01277        -0.12396
H         42.57223        11.77027        -1.02051
H         42.50809        14.07194        -1.80480
H         42.48262        15.88034        -2.37957
H         40.40388        19.63195        -2.76515
H         42.42874        18.22271        -3.12774
