         344
 CSIRO Nanostructure Databank - Neutral Graphene Oxide Data Set
C          1.21211         2.07290        -0.72805
C          1.19514         3.44529        -0.87047
C          2.41001         1.37129        -0.50494
C          2.42628         4.21723        -0.72683
C          1.11930         6.42423        -0.17334
C          1.13520         7.71839         0.22111
C          2.38940         5.71204        -0.41525
C          2.37055         8.47588         0.35743
C          1.12426        10.64453         0.56081
C          1.09348        12.00815         0.60881
C          2.35900         9.89394         0.48694
C          2.30167        12.78859         0.59100
C          1.13860        14.95219         0.24483
C          1.18558        16.30262         0.05107
C          2.33209        14.15250         0.34820
C          2.44868        16.99859        -0.06590
C          2.47568        18.45274        -0.25016
C          3.65299         2.05190        -0.38908
C          3.67422         3.48962        -0.42250
C          4.86445         1.34349        -0.26010
C          4.87853         4.18627        -0.24154
C          3.58854         6.27994         0.32759
C          3.61169         7.79445         0.31823
C          4.88725         5.63027        -0.08552
C          4.83059         8.48836         0.42880
C          3.58787        10.59038         0.58362
C          3.56345        12.04256         0.85252
C          4.82860         9.91520         0.57874
C          4.86023        12.78185         1.03053
C          3.66976        14.79316         0.03282
C          3.62297        16.29448        -0.01925
C          4.81518        14.31947         0.96494
C          4.92110        17.00303        -0.29582
C          3.62661        19.14587        -0.16269
C          4.90091        18.43797         0.23748
C          6.10727         2.01971        -0.21390
C          6.11419         3.46121        -0.18212
C          7.33186         1.31549        -0.21519
C          7.34130         4.15852        -0.12321
C          6.06992         6.33753        -0.05148
C          6.09511         7.77374         0.25418
C          7.33913         5.61958        -0.12415
C          7.28594         8.45454         0.35050
C          6.07117        10.65027         0.70824
C          6.13425        12.03354         0.84401
C          7.29635         9.81899         1.01681
C          7.39569        12.75252         0.84233
C          6.13166        14.95013         0.56379
C          6.15621        16.26977         0.18749
C          7.38855        14.26431         1.04715
C          7.38867        17.01240         0.10763
C          6.16861        19.13693        -0.15844
C          7.36386        18.43340        -0.14994
C          8.56851         1.99820        -0.23072
C          8.56528         3.43681        -0.16313
C          9.80933         1.31162        -0.29299
C          9.81164         4.13507        -0.22647
C          8.52064         6.31535        -0.11116
C          8.53094         7.81698        -0.20852
C          9.81704         5.59925         0.13156
C          9.85453         8.44382         0.17318
C          8.62760        10.59114         0.91477
C          8.61035        12.07930         0.78282
C          9.90465         9.85987         0.60792
C          9.86914        12.78409         0.57709
C          8.64562        14.93911         0.54691
C          8.62821        16.33126         0.25169
C          9.85713        14.22783         0.46087
C          9.85334        17.04459         0.03391
C          8.61620        19.10724        -0.38281
C          9.81230        18.44036        -0.30430
C         11.03224         2.00765        -0.40747
C         11.00084         3.44994        -0.42266
C         12.28333         1.33662        -0.44559
C         12.23750         4.19063        -0.86443
C         11.03236         6.34549        -0.34882
C         11.00512         7.79498        -0.20079
C         12.20065         5.65988        -0.52365
C         12.20796         8.55959        -0.62350
C         11.23508        10.60282         0.47199
C         11.08165        12.10580         0.34693
C         12.12383        10.07724        -0.65550
C         12.28541        12.80844         0.07621
C         11.08678        14.94603         0.26299
C         11.09690        16.37512         0.14348
C         12.30409        14.22299         0.13281
C         12.34026        17.11774         0.17494
C         11.08631        19.13692        -0.71087
C         12.35776        18.53220        -0.14072
C         13.53645         2.01805        -0.51799
C         13.54351         3.47928        -0.58042
C         14.74827         1.32821        -0.49392
C         14.73606         4.16990        -0.51981
C         13.48120         6.38332        -0.37398
C         13.50535         7.82378        -0.73417
C         14.76050         5.63828        -0.33841
C         14.80380         8.52255        -0.72188
C         13.48753        10.74894        -0.56816
C         13.52115        12.08972        -0.23171
C         14.73369        10.00506        -0.85541
C         14.78009        12.83356        -0.21535
C         13.55059        14.94164         0.10782
C         13.53835        16.36276         0.33328
C         14.77472        14.26929        -0.01907
C         14.78305        16.95584         0.65679
C         13.47689        19.35150        -0.25678
C         14.78189        19.03115         0.24378
C         16.02331         2.03802        -0.86998
C         16.00407         3.48962        -0.45411
C         17.32340         1.33651        -0.57792
C         17.16598         4.19844        -0.21493
C         16.03185         6.37800        -0.50832
C         15.99419         7.82635        -0.66031
C         17.19360         5.64541        -0.32172
C         17.30600         8.60441        -0.81549
C         16.02530        10.74591        -0.65306
C         15.98173        12.17584        -0.34302
C         17.18362         9.95183        -0.08413
C         17.27974        12.89229        -0.58162
C         16.03067        14.98020         0.03119
C         16.03132        16.39069         0.34883
C         17.24906        14.31757        -0.12393
C         17.23238        17.17337         0.27494
C         16.03838        19.37622        -0.21935
C         17.23812        18.60960         0.07529
C         18.46333         2.00792        -0.22642
C         18.39331         3.44031         0.26341
C         19.74404         1.36527        -0.13003
C         19.67098         4.22807        -0.08612
C         18.49283         6.35653        -0.21574
C         18.53805         7.83164        -0.34378
C         19.61861         5.65177         0.51662
C         19.60442         8.53669         0.49009
C         18.49065        10.71972        -0.05638
C         18.50125        12.12556        -0.12424
C         19.68078        10.01369         0.19129
C         19.70184        12.84069         0.11277
C         18.48159        15.00330         0.07393
C         18.47775        16.46392         0.16869
C         19.67663        14.27685         0.15935
C         19.68963        17.15015         0.05734
C         18.47729        19.26390        -0.06580
C         19.71664        18.57573        -0.01446
C         20.93909         2.06130         0.10705
C         20.94987         3.49616         0.22146
C         22.19758         1.37439         0.18917
C         22.14009         4.21811         0.32183
C         20.92758         6.40697         0.38484
C         20.92438         7.80034         0.42581
C         22.15243         5.67171         0.37103
C         22.14532         8.53708         0.53480
C         20.91271        10.70117         0.33092
C         20.92474        12.12828         0.32059
C         22.11857         9.95387         0.56566
C         22.17375        12.84694         0.43760
C         20.91903        15.03680         0.54429
C         20.96107        16.37091        -0.18224
C         22.20245        14.26405         0.38200
C         22.22668        17.12965         0.12673
C         20.96592        19.25068        -0.06398
C         22.20753        18.56017         0.05003
C         23.39692         2.06343         0.25375
C         23.40190         3.51794         0.27891
C         24.66155         1.36885         0.35137
C         24.60043         4.22420         0.21722
C         23.37995         6.37404         0.41791
C         23.39474         7.80654         0.54357
C         24.62698         5.65655         0.33118
C         24.62953         8.48656         0.59745
C         23.33446        10.70046         0.86941
C         23.39179        12.14298         0.60332
C         24.67371         9.91953         0.89423
C         24.63323        12.82358         0.58898
C         23.41609        14.96330         0.38579
C         23.42435        16.41981         0.29992
C         24.65471        14.24929         0.46640
C         24.67171        17.11459         0.33541
C         23.43880        19.24883         0.10134
C         24.66689        18.55139         0.20671
C         25.86348         2.03059         0.26126
C         25.85680         3.48284        -0.17873
C         27.11955         1.34036         0.39888
C         27.10130         4.23018         0.18428
C         25.84945         6.36000         0.34167
C         25.87327         7.79004         0.45978
C         27.11609         5.64250         0.26408
C         27.09493         8.50405         0.48712
C         25.90000        10.67465         0.65019
C         25.87839        12.09161         0.61430
C         27.11918         9.93555         0.47576
C         27.10096        12.82315         0.54164
C         25.89351        14.95470         0.47975
C         25.90469        16.40116         0.42651
C         27.11057        14.21940         0.52078
C         27.13921        17.10424         0.37555
C         25.89506        19.23950         0.14958
C         27.13469        18.54974         0.21305
C         28.32124         2.01197         0.49166
C         28.30670         3.48721         0.53909
C         29.60078         1.35281         0.55842
C         29.61463         4.22702         0.50811
C         28.33465         6.34503         0.30773
C         28.39860         7.78032         0.73198
C         29.58515         5.61419        -0.09450
C         29.61005         8.50261         0.18537
C         28.33778        10.62441         0.30140
C         28.42152        12.08988         0.62885
C         29.55036         9.90916         0.00665
C         29.50964        12.82317        -0.11623
C         28.43965        14.93334         0.67567
C         28.38490        16.40246         0.32439
C         29.55548        14.19627        -0.04566
C         29.57039        17.07097         0.03552
C         28.33727        19.24786         0.13537
C         29.65644        18.55951         0.27379
C         30.79597         2.02815         0.50851
C         30.87491         3.46007         0.40015
C         32.04222         4.18751         0.28920
C         30.87943         6.36017         0.12738
C         30.83043         7.81557        -0.00838
C         32.03467         5.62473         0.24252
C         31.97377         8.55393        -0.38537
C         30.69070        10.61633        -0.46977
C         30.48112        12.03700        -0.96204
C         31.89254         9.92428        -0.63865
C         31.73113        12.81799        -1.24185
C         30.69326        14.92703        -0.53913
C         30.74024        16.35870        -0.43566
C         31.78537        14.16716        -1.08622
C         31.81874        17.10580        -0.94212
C         30.72509        19.23957        -0.52552
C         31.76150        18.52273        -1.04610
O          2.62032         5.28386        -1.77262
O         19.03990         6.99385        -1.43411
O         12.68823         8.06996        -1.93746
O          4.11722        12.31993         2.21622
O          9.48156        10.09105         2.01816
O         14.08833         6.07513         0.93147
O         28.94332         4.06152         1.77815
O         23.97388        10.30075         2.12883
O         15.54591        10.47907        -2.00694
O         14.76567        18.16257         1.36096
O         21.01060        16.07393        -1.61200
H         20.97906        16.92531        -2.09643
O          8.45180         8.12915        -1.66477
H          7.63379         7.70762        -2.00718
O         20.80953        15.34120         1.96955
H         20.80060        14.49301         2.46033
O         29.50711         5.38790        -1.54797
H         29.49989         6.26443        -1.98765
O         17.51295         8.89583        -2.20869
H         17.94118         8.10225        -2.60451
O         11.01599        20.53761        -0.42354
H         10.99299        20.64782         0.54900
O         15.96955         2.08590        -2.35524
H         15.13011         2.53300        -2.60073
O         19.64223         4.35838        -1.53024
H         20.26319         5.07042        -1.79396
O         11.51023        10.45083        -1.90599
H         11.91909         9.88918        -2.60263
O          7.09134         9.50836         2.43468
H          7.98980         9.44687         2.83966
O         25.83136         3.43683        -1.65827
H         25.00468         2.97585        -1.91724
O         18.25043         3.28854         1.69706
H         18.20532         4.19141         2.09489
O          7.38175        14.45713         2.51043
H          6.44377        14.61533         2.78138
O          5.04162        17.07494        -1.74623
H          5.01806        16.14813        -2.07456
O         28.75211        14.91311         2.10533
H         28.86059        13.95877         2.35529
O          9.97033         5.61970         1.60462
H          9.23716         5.08768         1.98147
O         28.58092         7.77257         2.20821
H         27.94055         7.12771         2.57868
O          4.55191        14.80340         2.30271
H          4.08673        14.06837         2.77613
O         19.12774         8.43202         1.88194
H         19.80341         8.84694         2.45952
O         11.98955        10.33829         1.67906
H         11.36363        10.43353         2.43313
O          3.37549         5.88539         1.72428
H          4.06579         6.32176         2.26747
O         19.30764         5.63156         1.93228
H         20.10872         5.34070         2.41613
O         29.80783        11.86256        -2.27532
H         29.71134        12.75515        -2.67115
O         12.16787         4.16982        -2.34666
H         11.33703         4.61905        -2.61348
O         17.39172        12.95128        -2.05537
H         17.10379        12.08005        -2.41033
O         30.04951        18.69035         1.70817
H         29.51964        18.03506         2.21280
O          4.89799        18.33914         1.69418
H          4.90813        19.24743         2.06062
O         16.79289         9.70550         1.28917
H         17.53572         9.23051         1.74472
O         28.82873        12.14116         2.06146
H         28.22557        11.54526         2.55685
O          4.05409        14.32897        -1.30960
H          3.29104        14.49002        -1.90500
H          0.27432         1.50828        -0.83040
H          0.26102         3.96549        -1.12077
H          2.39583         0.27391        -0.44849
H          0.16344         5.91626        -0.36469
H          0.17643         8.23144         0.37465
H          0.16825        10.10544         0.54573
H          0.12029        12.51796         0.60056
H          0.16145        14.46526         0.36946
H          0.25475        16.88555         0.00143
H          1.52343        18.96184        -0.46385
H          4.84737         0.24393        -0.24739
H          3.63548        20.24061        -0.28188
H          7.31995         0.21626        -0.24904
H          6.17250        20.22505        -0.32875
H          9.81283         0.21158        -0.28144
H          8.60715        20.17657        -0.64055
H         12.29038         0.23702        -0.39606
H         11.15558        19.05585        -1.83503
H         14.74355         0.22839        -0.44374
H         13.33950        20.30771        -0.78713
H         17.38941         0.27329        -0.86165
H         16.14072        20.21505        -0.92478
H         19.79621         0.27794        -0.30036
H         18.48605        20.35403        -0.21584
H         22.20471         0.27414         0.16275
H         20.97642        20.34916        -0.12592
H         24.64604         0.28509         0.54571
H         23.45090        20.34637         0.02705
H         27.10617         0.23983         0.44419
H         25.89796        20.33357         0.03486
H         29.60707         0.25352         0.60758
H         28.32128        20.34637         0.06941
H         31.73688         1.45750         0.52234
H         33.01204         3.66853         0.27548
H         33.00557         6.13743         0.31141
H         32.93116         8.03702        -0.53769
H         32.79193        10.44678        -0.99228
H         32.58427        12.30004        -1.70280
H         32.70780        14.68987        -1.37568
H         32.69806        16.59715        -1.35803
H         30.68628        20.33331        -0.63151
H         32.57468        19.03884        -1.57769
