         249
 CSIRO Nanostructure Databank - Neutral Graphene Oxide Data Set
C         30.60943        31.45909        -1.39679
C         30.69162        32.64114        -0.97154
C         30.44270        35.65452         0.01312
C         30.43713        36.83071         0.44842
C         30.56027        40.12492         1.06817
C         30.53448        41.35409         1.01297
C         33.15299        28.96207        -2.36707
C         32.04818        29.37611        -2.02143
C         33.10473        31.51234        -1.48052
C         31.84183        30.59267        -1.16887
C         32.98266        33.04490        -1.43502
C         31.69082        33.61576        -0.83243
C         32.77866        35.80546        -0.31093
C         31.61510        34.94061        -0.37507
C         32.71027        37.17587         0.07826
C         31.50285        37.75097         0.55406
C         32.85397        39.67091         1.36951
C         31.49122        38.98427         1.41194
C         32.76293        41.98167         1.26756
C         31.49846        42.42655         0.92168
C         32.65699        44.41420         0.30459
C         31.59495        43.75600         0.34483
C         35.71644        27.53274        -1.47832
C         35.60675        28.84287        -1.82958
C         34.48849        29.57943        -2.52532
C         35.55915        31.79630        -1.79674
C         34.29868        30.99774        -1.88972
C         35.50015        33.14488        -1.24385
C         34.21410        33.67538        -0.81563
C         35.31021        35.95446        -0.26282
C         34.08760        35.13444        -0.35382
C         35.23718        37.29169        -0.05654
C         33.93467        38.06244        -0.16413
C         35.26381        40.17503         0.90653
C         33.97283        39.32653         0.70399
C         35.21169        41.66376         0.43882
C         33.99687        42.51921         0.63384
C         35.22828        44.64828         0.34611
C         34.03387        44.00348         0.41603
C         35.51520        46.02973         0.13063
C         37.45774        27.44791         0.04682
C         36.40202        26.85380        -0.62445
C         37.89491        28.74420        -0.52220
C         36.88916        29.50944        -1.48164
C         37.96038        31.73439        -0.78963
C         36.89967        31.02226        -1.53182
C         37.95186        33.09656        -0.58514
C         36.73918        33.88024        -0.93016
C         37.78324        35.86736         0.33673
C         36.63564        35.28734        -0.39289
C         37.69017        37.29594         0.73220
C         36.43655        38.03713         0.40898
C         37.75981        40.22416         0.37971
C         36.43700        39.52501         0.13763
C         37.73621        41.67886         0.28981
C         36.52228        42.38294         0.30210
C         37.75232        44.56071        -0.21400
C         36.57072        43.89595         0.53520
C         37.84778        46.08654        -0.31863
C         36.57386        46.68793         0.13490
C         40.37978        25.88810         3.41838
C         39.23721        26.40301         3.06883
C         40.26553        27.72372         1.35786
C         39.05356        27.04815         1.85367
C         40.28580        28.79139         0.49021
C         39.01056        29.51315         0.13605
C         40.37072        31.68751        -0.17837
C         39.06175        30.97196        -0.13782
C         40.30399        33.12383         0.14575
C         39.09637        33.78550         0.03056
C         40.20128        35.94127         0.70206
C         38.97702        35.18953         0.43073
C         40.21292        37.30531         0.63445
C         38.97688        38.08749         0.98204
C         40.21838        40.21248         0.42397
C         38.94416        39.52476         0.48727
C         40.21788        41.65243         0.29959
C         39.00540        42.36252         0.22515
C         40.34317        44.56399        -0.08237
C         39.03617        43.79239        -0.16446
C         40.33546        46.04658         0.02377
C         39.15478        46.74282        -0.12043
C         40.39973        48.84224         0.20912
C         39.37349        48.16960         0.00500
C         42.80682        25.24169         2.69444
C         41.58801        25.94678         2.80433
C         42.66273        27.24362         0.81208
C         41.64406        27.29164         1.97465
C         42.86752        28.69014         0.32377
C         41.58728        29.43461         0.08524
C         42.87376        31.64230         0.43483
C         41.65041        30.93817        -0.03594
C         42.83960        33.03455         0.70656
C         41.51962        33.73742         0.72450
C         42.67403        36.03779         1.38484
C         41.45296        35.20491         1.00595
C         42.74781        37.36359         0.67466
C         41.46501        38.01451         0.21131
C         42.67524        40.18548         0.19434
C         41.42816        39.51033         0.38475
C         42.69003        41.63346         0.21755
C         41.48233        42.33354         0.30086
C         42.82861        44.50897         0.59274
C         41.51271        43.80278         0.45213
C         42.90592        45.93253         0.06550
C         41.64072        46.75443         0.43282
C         43.04720        48.78431         0.45756
C         41.75850        48.29208        -0.15989
C         43.70658        25.27409         1.81583
C         45.29037        27.27088         1.19536
C         44.01356        26.52453         1.10269
C         45.26908        28.81511         1.36350
C         44.09791        29.47136         0.64066
C         45.31571        31.56565         1.04226
C         44.05818        30.86593         0.63894
C         45.24729        33.05317         1.38624
C         43.96621        33.75735         1.14836
C         45.27578        35.99416         1.00976
C         43.99165        35.22855         1.34404
C         45.23236        37.37429         0.49079
C         43.93387        38.04360         0.45764
C         45.09527        40.08795        -0.35464
C         43.86419        39.43616         0.06876
C         45.14986        41.64053        -0.24059
C         43.94927        42.33858         0.21027
C         45.34074        44.34982         0.52536
C         44.06044        43.70415         0.45681
C         45.35527        45.82098         0.70508
C         44.22864        46.58345         0.55858
C         43.99814        47.98865         0.59032
C         47.68867        27.44081         1.51106
C         46.61634        26.83823         1.66829
C         47.84426        28.79280         1.03428
C         46.59739        29.48237         0.99698
C         47.71616        31.43594         0.05661
C         46.57916        30.84484         0.65991
C         47.63656        32.81572        -0.47466
C         46.45682        33.88688         1.52461
C         47.80267        35.87383         0.27281
C         46.59214        35.25884         0.95207
C         47.57601        37.15593        -0.53140
C         46.37016        37.96601        -0.06772
C         47.54250        40.08572        -0.66042
C         46.36003        39.36215        -0.37640
C         47.60941        41.48870        -0.36864
C         46.46239        42.23579        -0.00559
C         47.89527        44.08075         0.99060
C         46.52324        43.57692         0.47405
C         47.78133        45.58751         0.89966
C         46.71494        46.21127         0.97693
C         50.33725        28.88788         0.43672
C         49.00534        29.40758         0.52619
C         50.09561        31.29820        -0.79178
C         48.92995        30.70934        -0.06330
C         50.09313        32.87482        -1.01938
C         48.93851        33.58768        -0.40863
C         50.21460        35.78198        -0.61217
C         49.02322        35.06396        -0.11601
C         50.22817        37.31176        -0.65057
C         48.84871        37.98344        -0.73071
C         49.92136        40.15217        -1.46184
C         48.76535        39.33829        -0.96193
C         49.91705        41.58914        -1.17144
C         48.88576        42.19307        -0.42838
C         50.37545        43.81462         0.30372
C         49.04499        43.44925         0.25084
C         51.34311        29.35707        -0.13669
C         52.45674        31.45325        -1.22076
C         51.44299        30.62480        -0.76862
C         52.39282        32.72139        -1.35129
C         51.36635        33.61809        -1.09383
C         52.43760        35.90553        -1.34622
C         51.36070        35.04422        -0.93108
C         52.46817        37.11842        -1.59079
C         51.14940        37.85925        -1.80270
C         52.40373        40.16196        -1.42343
C         51.22926        39.37787        -1.77177
C         52.60729        41.25850        -0.87001
C         51.89241        42.47762        -0.77918
C         51.58134        43.36015         0.26341
O         37.59499        45.24269        -1.47730
O         41.20081        34.23624         2.09308
O         36.97963        35.05171        -1.82044
O         50.86109        42.41425        -1.82008
O         50.42812        39.90639        -2.84570
O         47.64823        36.00763         1.70321
O         36.56719        31.56833        -2.84129
O         32.89924        40.87053         2.12864
O         42.33465        28.82585        -1.03629
O         49.75292        31.94239        -2.05828
O         39.87592        44.02462        -1.34944
O         38.07225        28.81140        -1.97239
O         46.61124        33.31146        -0.93132
O         42.00569        44.26562         1.76079
O         41.17933        31.38716        -1.37036
O         44.84362        35.73410         2.41299
O         49.31620        34.05232         0.93746
O         34.13139        33.99371         0.60512
O         45.27461        31.98890         2.43557
O         44.89069        26.64601        -0.03869
O         38.63537        30.45542         1.19367
O         44.95985        40.96794        -1.51888
O         37.81936        26.99602         1.28050
O         36.71768        37.62772         1.79579
O         48.00569        43.70556         2.36169
H         47.32485        44.18556         2.87762
O         36.95848        44.07351         1.92949
H         36.36785        43.53731         2.49883
O         42.99700        45.79202        -1.35710
H         42.82228        46.66604        -1.78006
O         47.23200        36.65056        -1.85791
H         47.14536        37.41223        -2.47026
O         50.82685        37.79054         0.57763
H         50.38314        37.36235         1.33925
O         41.47160        37.81214        -1.26347
H         42.12919        38.43160        -1.64902
O         33.78101        38.47183        -1.54552
H         34.60384        38.96118        -1.80007
O         41.89280        48.27767        -1.55285
H         41.98585        49.19409        -1.88591
O         42.45450        36.41598         2.76632
H         42.11769        35.61766         3.23310
O         35.60556        40.16469         2.29784
H         34.78612        40.32942         2.81451
O         32.99902        33.47717        -2.81696
H         32.25827        33.04148        -3.29036
O         39.10189        38.25306         2.42861
H         38.18176        38.26965         2.78834
O         31.22729        38.55836         2.75088
H         31.19593        39.35234         3.32463
O         31.91802        30.25187         0.18682
H         31.15725        29.68209         0.42113
O         41.63141        46.88302         1.85073
H         40.87225        47.44660         2.11145
O         34.27892        41.82698        -0.68161
O         47.33276        33.52089         2.40243
H         48.04710        34.21270         2.46384
O         34.80474        29.75861        -3.89930
H         35.62196        30.30820        -3.95897
O         42.04140        28.33722         2.86537
H         41.45162        28.33007         3.64871
O         50.59972        37.43053        -3.01989
H         50.77193        38.10253        -3.71473
O         45.06484        28.98308         2.78992
H         44.95682        29.94022         2.98565
O         36.19102        39.66147        -1.28792
H         36.13556        40.61637        -1.51174
O         42.03392        26.47675        -0.21609
H         42.19520        26.93125        -1.07635
