         294
 CSIRO Nanostructure Databank - Neutral Graphene Oxide Data Set
C          1.33491         1.70669         0.04573
C          1.22414         3.13968         0.04669
C          2.39111         0.83806        -0.04392
C          2.17384         4.08742        -0.31854
C          0.77031         6.20277        -0.12676
C          0.73685         7.55724        -0.29463
C          2.00954         5.49871        -0.11914
C          1.92330         8.45437        -0.59885
C          1.09685        10.83895        -0.28389
C          1.19753        12.22405         0.19774
C          1.75465         9.74211         0.21420
C          2.37654        12.84785         0.44633
C          1.40396        14.97976         1.56357
C          1.56932        16.12804         2.24062
C          2.47367        14.36224         0.67405
C          2.85647        16.92308         2.34995
C          2.73177        18.31121         1.69638
C          3.84215         1.07040        -0.16768
C          3.47263         3.65932        -0.96647
C          4.63154         1.76739         0.70050
C          4.66041         4.27071        -0.30902
C          3.23390         6.30955         0.05696
C          3.31423         7.80907        -0.25872
C          4.44804         5.49906         0.21418
C          4.65096         8.49216        -0.88607
C          3.70191        10.93467        -0.67985
C          3.66130        12.02639         0.38134
C          4.83192         9.95106        -0.49811
C          4.92692        12.84116        -0.04659
C          3.82975        14.77631         1.21453
C          3.99930        16.15999         1.71376
C          5.06835        14.03416         0.85752
C          5.23932        16.67941         1.66564
C          3.73289        19.14640         1.31852
C          5.15963        18.84082         1.41303
C          6.00611         2.20336         0.31308
C          6.00213         3.60010        -0.23913
C          7.16714         1.52648         0.45534
C          7.29960         4.35421        -0.19842
C          6.29650         6.66717        -0.00786
C          6.01789         7.82222        -0.66857
C          7.44776         5.83980        -0.26082
C          7.21077         8.46861        -1.30346
C          6.05240        10.56991        -0.51869
C          6.21698        11.94483         0.13251
C          7.24128         9.99435        -1.27987
C          7.42865        12.73963        -0.37501
C          6.45603        14.70265         0.87859
C          6.24131        16.20293         0.64203
C          7.42226        14.11930        -0.11583
C          7.51019        17.01685         0.50663
C          6.20149        19.22887         0.62623
C          7.47953        18.48895         0.62958
C          8.47560         2.09642        -0.07419
C          8.55758         3.62260         0.21511
C          9.74891         1.47228         0.44520
C          9.76511         4.23997        -0.47194
C          8.60040         6.37770        -0.77219
C          8.53890         7.75521        -1.30493
C          9.81034         5.57040        -0.84465
C          9.82732         8.50296        -1.40676
C          8.56913        10.54265        -0.68842
C          8.58205        12.05884        -0.78780
C          9.83919         9.85149        -1.20014
C          9.84272        12.85292        -1.10553
C          8.55967        14.98751        -0.58845
C          8.61381        16.38139         0.01251
C          9.86549        14.18837        -0.31507
C          9.86393        17.15643        -0.34655
C          8.67464        19.16750         0.57740
C          9.92205        18.48282         0.36526
C         10.94870         2.05494         0.08511
C         10.92995         3.35476        -0.64496
C         12.20761         1.42755         0.26889
C         12.21108         3.98510        -1.09932
C         11.01317         6.18698        -1.38753
C         11.04753         7.65265        -1.72629
C         12.12929         5.38876        -1.59722
C         12.28753         8.47984        -0.49529
C         11.11113        10.60730        -0.95524
C         11.12162        12.09772        -0.79722
C         12.42941         9.86795        -1.13859
C         12.39414        12.89433        -0.89993
C         11.14187        14.98783        -0.52026
C         11.14633        16.34366        -0.30250
C         12.38816        14.25399        -0.76111
C         12.41015        17.06166        -0.15241
C         11.12538        19.08176         0.62414
C         12.37783        18.43830         0.34801
C         13.45832         1.97940        -0.10629
C         13.58494         3.36046        -0.79332
C         14.59251         1.33516         0.38682
C         14.59389         4.14264         0.21283
C         13.58090         6.47504         0.30518
C         13.54638         7.79266        -0.25307
C         14.69051         5.64532         0.07311
C         14.86035         8.55293        -0.25579
C         13.63240        10.74184        -0.57663
C         13.63478        12.12373        -1.33250
C         14.90025         9.95366        -0.83433
C         14.97118        12.85270        -1.13131
C         13.62430        15.09526        -1.10235
C         13.60751        16.43925        -0.40700
C         14.97153        14.33844        -0.96292
C         14.89668        17.21496        -0.44901
C         13.55382        19.12214         0.57159
C         14.82237        18.55078         0.26362
C         15.93009         1.93826         0.35402
C         15.96460         3.43412         0.12047
C         17.10836         1.31962         0.97270
C         17.20863         4.15400         0.45638
C         16.03419         6.36342         0.17722
C         16.02215         7.65783        -0.66517
C         17.28138         5.53003        -0.16462
C         17.34533         8.41141        -0.71032
C         16.10485        10.57051        -1.03579
C         16.15312        12.06675        -0.55468
C         17.29059         9.68473        -1.25564
C         17.50628        12.82014        -0.71211
C         16.20100        14.97423        -0.37610
C         16.10231        16.39968         0.03635
C         17.39993        14.31519        -0.35475
C         17.34879        17.18292         0.33057
C         15.97897        19.26900         0.41056
C         17.23454        18.64344         0.06636
C         18.26527         2.03681         1.16428
C         18.30376         3.48187         0.93144
C         19.51732         1.33129         1.41801
C         19.56129         4.21390         1.22780
C         18.48092         6.36037         0.23645
C         18.67688         7.67758        -0.52299
C         19.66926         5.66557         0.85556
C         19.76419         8.43834         0.25448
C         18.65650        10.80508         0.48051
C         18.65940        12.13403         0.05492
C         19.83256         9.90331         0.30070
C         20.04591        12.73367        -0.18653
C         18.69976        15.06095        -0.16598
C         18.73458        16.53494         0.36786
C         19.99779        14.27972        -0.03639
C         19.76451        17.37931        -0.39302
C         18.20185        19.29048        -0.63789
C         19.43928        18.62994        -0.97993
C         20.72441         1.93891         1.37748
C         20.84077         3.41286         1.36056
C         22.08929         4.06914         0.95876
C         20.99667         6.24822         0.68922
C         21.10738         7.72165         0.35120
C         22.13159         5.42508         0.66214
C         22.07572         8.43146         1.28213
C         21.14685        10.60064         0.64054
C         21.01607        12.06916         0.80129
C         22.14345         9.77144         1.34883
C         21.71057        12.76498         1.74160
C         21.14647        14.88540         0.69668
C         21.11843        17.00732        -0.47559
C         21.81311        14.19358         1.67750
C         22.05400        17.70801        -1.25813
C         20.36814        19.33017        -1.77852
C         21.65855        18.84351        -1.96243
O          3.24896         7.36929         1.09831
O         20.85640        10.26121        -0.74602
O         11.41064         3.16366        -2.02828
O         21.69758        16.07850         0.36796
O         13.51604        10.97016         0.80512
O         15.31942        13.69271        -2.26564
O         16.49259        16.69378         1.41966
O          6.42576        11.79053         1.51356
O         18.71953         6.51131         1.64582
O          3.48950         2.96152        -1.96830
O          5.44047         6.12084         0.95786
O          6.76816         3.82116        -1.47478
O          3.31670        11.08172        -1.84563
O          7.70455         7.87505        -2.54234
O          4.46190        13.84230         2.16139
O         11.01492        11.25064         0.39098
O         20.14658         3.98854         2.54433
O         19.61969        14.89904        -1.30193
O         16.23755         2.51732        -0.99097
O          5.49564        17.86612         2.37891
O          7.04785        14.46802         2.16820
H          6.96180        13.48595         2.31511
O          2.35425        14.99124        -0.63345
H          1.53463        14.66020        -1.05584
O         19.14251        16.46993         1.75168
H         18.32247        16.39438         2.29090
O          8.73352         3.76107         1.64898
H          8.69747         4.71450         1.87369
O          9.71719        17.50163        -1.79022
H          9.07397        18.24202        -1.84257
O         19.22241         7.32393        -1.83349
H         19.28483         8.16287        -2.34490
O          8.52416         1.87002        -1.50058
H          7.80699         2.41456        -1.91059
O         13.49948        11.98739        -2.77264
H         14.14424        12.60690        -3.18966
O          9.82824        13.86365         1.09007
H         10.55489        13.23486         1.29195
O         17.70841        10.24017         1.23733
H         16.94091        10.86921         1.36655
O         14.96850         8.86539         1.17295
H         14.34634         9.66357         1.32553
O         17.85771        12.75395        -2.11996
H         18.70743        13.25220        -2.22710
O         21.73893         7.74787        -0.97082
H         21.65438         8.68500        -1.28158
O          9.86852        13.08751        -2.52771
H          9.15434        13.74409        -2.73229
O          8.38561        15.19505        -2.02168
H          8.93822        15.98811        -2.26598
O          4.84001        13.31984        -1.38305
H          4.41534        12.63491        -1.95428
O          5.55946        16.32281        -0.64186
H          6.01651        15.74785        -1.29543
O          3.11053        17.13972         3.75580
H          4.02848        17.48690         3.82542
O          8.51285        10.21293         0.72087
H          9.22969        10.71387         1.17343
O         12.75788         9.61779        -2.50005
H         12.75460        10.45833        -3.01426
O         11.45985         8.46016         0.68213
H         11.66128         9.29268         1.17503
O         13.48113        15.43251        -2.52220
H         13.93027        14.71513        -3.03000
O          3.88189        11.44237         1.66910
H          4.85900        11.52551         1.91091
O         18.35374        10.13363        -1.95946
H         18.26423        11.10565        -2.17820
O         14.12999         3.85974         1.55500
H         13.44740         4.52745         1.79206
O         20.48456        12.51433        -1.55438
H         21.43492        12.74292        -1.61182
O         12.45130         5.96654         0.89680
H         11.81760         6.72392         1.01726
O         16.16803         6.60414         1.58776
H         15.74041         7.46659         1.81658
O         15.69070         7.27170        -2.02771
H         16.28338         6.51854        -2.27462
O          7.11484        10.48021        -2.63020
H          7.20932         9.70328        -3.22881
O         15.89607        12.05922         0.87555
H         14.94774        11.70542         1.02641
O         13.17756         5.84507        -2.31801
H         13.81525         5.09269        -2.45684
O          2.15412         9.61504         1.49121
H          2.25766        10.49340         1.92492
O         17.38226         5.29128        -1.59893
H         18.17062         5.78446        -1.94313
O         11.43163         7.83993        -3.02369
H         12.14423         7.20344        -3.25605
O          1.82244         8.79536        -1.99176
H          1.78980         7.96925        -2.51689
O         15.16054        17.51196        -1.85684
H         14.55510        16.95097        -2.40402
O         14.15184         3.33082        -2.11297
H         14.98111         2.78741        -2.10308
O          4.43471         8.43132        -2.31209
H          3.89479         9.22205        -2.55989
O          4.42437         0.41936        -1.21433
H          3.74028         0.11370        -1.84053
H          0.35617         1.21066         0.17012
H          0.26536         3.52044         0.43740
H          2.11107        -0.22933        -0.11461
H         -0.17312         5.63930        -0.06454
H         -0.24159         8.05887        -0.34469
H          0.69506        10.73961        -1.30621
H          0.26968        12.82561         0.17368
H          0.41596        14.49020         1.58915
H          0.72190        16.52132         2.82585
H          1.70172        18.67003         1.53142
H          4.15296         2.30961         1.53041
H          3.46103        20.09433         0.82461
H          7.16428         0.50361         0.86166
H          6.09660        20.06620        -0.08069
H          9.73570         0.49892         0.96016
H          8.69722        20.25453         0.74652
H         12.22418         0.45594         0.78833
H         11.14824        20.09217         1.06008
H         14.46402         0.39351         0.94262
H         13.52151        20.14084         0.98661
H         17.08413         0.24376         1.20347
H         15.95670        20.32517         0.71819
H         19.46213         0.23535         1.50111
H         18.06391        20.33817        -0.93933
H         21.64862         1.34524         1.44047
H         22.99953         3.45942         0.86871
H         23.09680         5.87992         0.39592
H         22.80490         7.81792         1.83217
H         22.88524        10.26474         1.99430
H         22.34918        12.23417         2.46252
H         22.61510        14.69387         2.23371
H         23.09289        17.35541        -1.28953
H         20.06323        20.28242        -2.23365
H         22.37681        19.38568        -2.59183
