         618
 CSIRO Nanostructure Databank - Neutral Graphene Oxide Data Set
C         23.46759        69.09168         2.76667
C         23.51566        70.35629         3.40062
C         22.45512        70.82735         4.22127
C         23.66033        72.88563         4.69072
C         22.53805        72.07163         4.84656
C         25.62796        65.60079        -0.01021
C         25.61227        66.88858         0.57277
C         24.52055        67.35323         1.34083
C         25.67798        69.47658         1.76275
C         24.53434        68.62886         1.95980
C         25.73792        70.75423         2.40256
C         24.66713        71.19281         3.22675
C         25.90778        73.27051         3.72098
C         24.74970        72.46483         3.88069
C         27.85204        61.55164        -1.60782
C         27.94089        63.03613        -1.32030
C         26.77360        63.69944        -0.99201
C         27.96150        65.87292        -0.84750
C         26.77969        65.07900        -0.63521
C         27.85135        67.27761        -0.45955
C         26.75445        67.73216         0.35185
C         27.86130        69.90954         0.73504
C         26.75090        69.03779         0.93212
C         27.95294        71.15360         1.42515
C         26.88598        71.58805         2.25212
C         28.17545        73.64502         2.75573
C         26.98910        72.84974         2.92473
C         30.39484        57.26516        -1.53802
C         30.39732        58.68178        -1.52289
C         29.17551        59.43069        -1.55987
C         30.39037        61.54112        -1.42303
C         29.16300        60.81069        -1.50899
C         30.40610        62.97863        -1.39352
C         29.16946        63.75664        -1.36454
C         30.46190        65.85808        -1.31314
C         29.17225        65.19263        -1.24716
C         30.65679        67.22621        -1.37829
C         28.77242        68.28115        -0.84365
C         30.02353        70.37614        -0.29882
C         28.86350        69.54556        -0.20325
C         30.23656        71.41851         0.58972
C         29.14759        71.91695         1.35467
C         30.45797        73.99487         1.74024
C         29.25766        73.19331         2.01040
C         32.75604        52.86513        -0.96833
C         32.38707        54.23850        -0.83134
C         31.51181        55.05367        -1.52311
C         32.82829        57.23214        -1.37713
C         31.58232        56.52223        -1.43681
C         32.86517        58.64550        -1.45584
C         31.63231        59.38361        -1.48588
C         32.85431        61.52113        -1.39387
C         31.62246        60.82123        -1.45052
C         32.86680        62.90320        -1.16953
C         31.64277        63.61807        -1.24263
C         32.87693        65.67057        -0.62721
C         31.76098        65.09015        -1.45351
C         32.82356        66.97717        -0.23685
C         31.81985        67.85936        -0.79290
C         32.87993        69.78867         0.35256
C         31.94632        69.23100        -0.60471
C         32.84884        71.21693         0.87208
C         31.56803        71.97979         0.93943
C         32.78801        74.21013         0.70549
C         31.56380        73.44947         1.16386
C         35.19775        48.73698        -0.18182
C         35.19524        50.13218        -0.21404
C         34.05419        50.87459        -0.58043
C         35.26999        53.02776        -0.35254
C         33.99185        52.29393        -0.56427
C         35.34736        54.46105        -0.66188
C         34.25736        55.28231        -0.59510
C         35.39758        57.24527        -1.47832
C         34.11880        56.46003        -1.51501
C         35.34302        58.65054        -1.64097
C         34.12433        59.34808        -1.58064
C         35.36449        61.56407        -1.40159
C         34.11056        60.84145        -1.85599
C         35.35751        62.87003        -0.93293
C         34.11141        63.59682        -0.84946
C         35.30346        65.63219         0.00870
C         34.09231        64.92244        -0.42679
C         35.23445        66.93067         0.50280
C         33.81037        67.43403         0.79330
C         35.49894        69.95475         1.56732
C         33.65509        68.89535         1.04182
C         35.40770        71.45681         1.56256
C         34.11696        72.01509         0.94098
C         35.29142        74.15432         0.76965
C         34.08747        73.41308         0.82368
C         37.42791        44.31983         0.19250
C         37.56297        45.75073         0.27171
C         36.40596        46.54116         0.03504
C         37.62703        48.64900         0.11109
C         36.39753        47.96863         0.03766
C         37.69929        50.11349         0.20914
C         36.38309        50.89716         0.32617
C         37.79025        53.05311        -0.12856
C         36.44522        52.33389        -0.17139
C         37.79552        54.41509        -0.80117
C         36.60550        55.10056        -1.01941
C         37.86866        57.16158        -1.48178
C         36.61177        56.50544        -1.36652
C         37.88936        58.59107        -1.82216
C         36.61130        59.37340        -1.89137
C         37.86652        61.55177        -1.24351
C         36.63522        60.89381        -1.68518
C         37.83036        62.88602        -0.74995
C         36.58650        63.57915        -0.61911
C         37.78882        65.57415         0.17707
C         36.57140        64.92322        -0.14842
C         37.78854        66.94601         0.75541
C         36.46255        67.66505         0.97329
C         37.80966        69.91503         1.01276
C         36.50250        69.18381         1.07304
C         37.79424        71.37764         0.75285
C         36.61984        72.09866         0.94533
C         37.75889        74.17704         0.36237
C         36.56495        73.50722         0.69472
C         40.04317        40.08863         0.84292
C         40.00978        41.47605         0.78855
C         38.75838        42.11141         0.38339
C         40.23435        44.47821         0.95813
C         38.39381        43.42109         0.70193
C         40.11495        45.80877         0.43058
C         38.85155        46.43303         0.30906
C         40.16402        48.58224        -0.35123
C         38.84351        47.85419        -0.10312
C         40.22916        50.04470        -0.38191
C         38.99440        50.81549        -0.12928
C         40.27555        52.89627        -0.72329
C         38.92059        52.20264        -0.73862
C         40.28500        54.33679        -0.87551
C         39.05350        55.06614        -0.97667
C         40.33612        57.18740        -1.15389
C         39.08048        56.47181        -1.24618
C         40.37631        58.59183        -1.13587
C         39.17145        59.34408        -1.51450
C         40.37043        61.41553        -0.64485
C         39.05676        60.73742        -1.02291
C         40.33831        62.89890        -0.67514
C         39.04360        63.57481        -0.42137
C         40.29570        65.55775         0.54371
C         39.02806        64.90448         0.00867
C         40.26635        67.06235         0.43278
C         39.06896        67.70768         0.62661
C         40.28894        69.92276         0.41560
C         39.08733        69.16991         0.81278
C         40.24742        71.33417         0.30350
C         39.00741        72.05107         0.42380
C         40.21173        74.15989         0.01422
C         38.98937        73.47682         0.26047
C         42.53070        35.81284         0.32664
C         42.49466        37.19225         0.62135
C         41.28722        37.88815         0.74781
C         42.51970        40.02274         0.70827
C         41.27611        39.31631         1.23505
C         42.52857        41.50639         0.99207
C         41.27461        42.21931         0.95202
C         42.61768        44.26936         0.42538
C         41.34028        43.63198         0.81835
C         42.61985        45.73401         0.15793
C         41.35529        46.49687         0.15296
C         42.66174        48.57408        -0.17969
C         41.41167        47.85769        -0.10389
C         42.68912        49.94654        -0.45480
C         41.45034        50.69849        -0.50828
C         42.75001        52.81791        -0.87000
C         41.44617        52.15287        -0.66617
C         42.77648        54.31292        -0.99535
C         41.50563        55.04612        -0.93006
C         42.80517        57.16309        -0.93259
C         41.54987        56.45833        -0.97051
C         42.82893        58.55510        -0.99069
C         41.60910        59.29972        -0.98991
C         42.87645        61.41530        -0.65537
C         41.63231        60.71525        -0.86748
C         42.87889        62.83006        -0.30861
C         41.63482        63.60673        -0.45224
C         42.78758        65.65703         0.24764
C         41.60584        64.97905         0.06631
C         42.76470        67.10913         0.38307
C         41.51714        67.78904         0.35853
C         42.73519        69.93275         0.13849
C         41.50961        69.21540         0.29025
C         42.70971        71.35591         0.02818
C         41.46449        72.04933         0.07817
C         42.68484        74.16972        -0.19540
C         41.43988        73.47629        -0.04931
C         45.01206        32.93624         0.11839
C         43.79819        33.59470         0.16287
C         45.03598        35.68793         0.89805
C         43.70948        34.98825         0.58792
C         45.07075        37.17813         0.63670
C         43.76511        37.90256         0.88053
C         45.00188        39.99002         1.56320
C         43.78308        39.25012         1.05331
C         45.03094        41.41646         1.07707
C         43.75821        42.16446         1.01022
C         45.03446        44.29796         0.98138
C         43.86662        43.58805         0.83597
C         44.94623        45.79354         1.17648
C         43.87475        46.48370         0.35173
C         45.16817        48.54232         0.16544
C         43.86882        47.83436         0.15778
C         45.10108        50.04180         0.28744
C         44.04322        50.61273        -0.67954
C         45.17633        52.79486        -0.33564
C         44.01791        52.11618        -0.54480
C         45.16278        54.27078        -0.16741
C         44.01131        55.04490        -0.65728
C         45.29193        57.14903        -0.52773
C         44.03933        56.42093        -0.70436
C         45.33829        58.54795        -0.72676
C         44.12372        59.29074        -1.23656
C         45.30597        61.31752        -0.22990
C         44.07535        60.71965        -0.75465
C         45.26154        62.74176         0.27776
C         44.03336        63.50784         0.04019
C         45.26938        65.64184         0.32285
C         44.06927        64.95604         0.17859
C         45.26904        67.12314         0.65645
C         43.97416        67.82660         0.35117
C         45.20254        69.95659        -0.03343
C         43.97627        69.23416         0.16689
C         45.17854        71.35974        -0.17707
C         43.93532        72.07476        -0.10382
C         45.18172        74.30046        -0.20399
C         43.89651        73.50224        -0.19772
C         46.24395        33.57945         0.35162
C         47.51738        35.65445         0.75014
C         46.31348        34.96034         0.66286
C         47.58334        37.04003         1.24053
C         46.27258        37.81862         1.31138
C         47.53018        39.94711         1.40532
C         46.33262        39.29319         1.34059
C         47.60563        41.44774         1.61903
C         46.32004        42.15563         1.21286
C         47.58677        44.30192         0.94705
C         46.31116        43.64897         1.45570
C         47.59418        45.70395         0.88428
C         46.35714        46.48472         1.29132
C         47.65614        48.59285         0.73015
C         46.39687        47.83060         0.58858
C         47.63690        50.00642         0.45000
C         46.45743        50.68183         0.16167
C         47.71954        52.84981         0.05762
C         46.51040        52.07227        -0.40819
C         47.71291        54.21931         0.11346
C         46.45664        55.00772         0.07789
C         47.72413        57.13346        -0.30621
C         46.49308        56.45257        -0.24192
C         47.76422        58.52051        -0.50210
C         46.56014        59.22941        -0.63093
C         47.85570        61.31366        -0.03384
C         46.61784        60.73666        -0.70951
C         47.83336        62.70403         0.49560
C         46.54379        63.48054         0.53560
C         47.74819        65.65066         0.28624
C         46.55515        64.95824         0.36438
C         47.75775        67.12934         0.21165
C         46.47953        67.84994         0.12399
C         47.64552        69.92919        -0.52045
C         46.45719        69.22722        -0.12330
C         47.60224        71.34778        -0.73177
C         46.40224        72.07621        -0.46157
C         47.60424        74.16226        -0.81778
C         46.41574        73.49228        -0.53504
C         48.80782        37.83871         1.17174
C         50.02173        39.97611         1.19854
C         48.79726        39.22411         1.27398
C         50.05459        41.36502         1.02043
C         48.73774        42.05556         0.74284
C         50.01959        44.25456         0.75325
C         48.78689        43.56805         0.84560
C         50.04770        45.68472         0.74868
C         48.82116        46.41171         0.79625
C         50.10736        48.56351         0.81071
C         48.84711        47.86488         0.79597
C         50.10609        49.96511         0.71040
C         48.91152        50.70893         0.44319
C         50.20581        52.81205         0.28524
C         48.94809        52.10638         0.27140
C         50.23808        54.19628         0.06928
C         48.98345        54.95098         0.20455
C         50.23801        57.01648        -0.67976
C         48.99757        56.42185        -0.04489
C         50.30521        58.50073        -0.46598
C         49.04991        59.26964        -0.78463
C         50.33477        61.31504        -0.03193
C         49.04651        60.65744        -0.19099
C         50.33676        62.75427         0.03855
C         49.12015        63.46801         0.44291
C         50.27485        65.65267        -0.22511
C         49.08209        64.99165         0.36272
C         50.23022        67.04545        -0.58924
C         49.02515        67.83746        -0.21977
C         50.00376        69.86840        -1.22516
C         48.89799        69.23767        -0.69277
C         49.94179        71.29481        -1.71386
C         48.77174        72.04491        -1.13144
C         50.04827        74.14471        -1.30206
C         48.79381        73.45205        -1.12119
C         51.24926        42.09758         0.92988
C         52.48147        44.21710         0.68400
C         51.27110        43.51552         0.76703
C         52.53328        45.64279         0.65350
C         51.30243        46.38204         0.73358
C         52.60148        48.46365         0.78990
C         51.34867        47.80894         0.81258
C         52.68145        49.91009         0.98420
C         51.35317        50.70561         0.92336
C         52.66566        52.76762         0.48640
C         51.43045        52.10968         0.53033
C         52.70175        54.16877         0.15761
C         51.46984        54.90029        -0.06533
C         52.72823        57.00897        -0.33494
C         51.49703        56.28626        -0.31735
C         52.75164        58.39778        -0.26449
C         51.50797        59.14454        -0.28004
C         52.79805        61.28603        -0.20489
C         51.53449        60.59894        -0.15779
C         52.77506        62.76132        -0.19950
C         51.48408        63.48155        -0.23854
C         52.58142        65.54242        -1.13354
C         51.43077        64.90123        -0.46124
C         52.59833        67.00677        -1.30317
C         51.33786        67.69167        -1.13207
C         52.47334        69.87062        -1.89656
C         51.22346        69.10736        -1.54939
C         52.46310        71.35321        -1.72266
C         51.27593        72.01927        -1.57570
C         52.50395        74.18168        -1.34406
C         51.24733        73.47414        -1.43538
C         53.76504        46.33161         0.55998
C         55.06337        48.46305         0.52866
C         53.83083        47.74733         0.60683
C         55.14025        49.88588         0.53200
C         53.92012        50.62775         0.68103
C         55.15032        52.72465         0.42522
C         53.91141        52.03145         0.56952
C         55.14532        54.13781         0.28709
C         53.91858        54.82952         0.06968
C         55.21230        56.96911        -0.19624
C         53.98105        56.18598        -0.57696
C         55.21485        58.39203        -0.72264
C         54.05788        59.12816        -0.02380
C         55.25654        61.28718        -0.58042
C         54.00796        60.60549        -0.32965
C         55.26890        62.68850        -0.76141
C         54.03768        63.47364        -0.54782
C         55.14600        65.58882        -1.33379
C         53.92255        64.81263        -1.20380
C         55.08630        66.98280        -1.54111
C         53.79287        67.66706        -1.58433
C         55.03171        69.92524        -1.57324
C         53.78320        69.13405        -1.84636
C         55.00084        71.39417        -1.40624
C         53.77005        72.11062        -1.93319
C         54.96137        74.22973        -1.24897
C         53.70884        73.54331        -1.46404
C         56.36596        50.60300         0.42420
C         57.60162        52.78993         0.26613
C         56.40255        52.02232         0.40737
C         57.61102        54.20592         0.21438
C         56.34891        54.88154         0.36074
C         57.86578        57.01698        -1.17925
C         56.21842        56.32852         0.49166
C         57.74254        58.47148        -0.84155
C         56.53099        59.14088        -0.67574
C         57.71796        61.29840        -0.88186
C         56.50211        60.57317        -0.68463
C         57.68520        62.71659        -1.02703
C         56.46091        63.40414        -0.98548
C         57.65323        65.58279        -1.40410
C         56.41570        64.92014        -0.84847
C         57.61201        67.10107        -1.53080
C         56.29384        67.74325        -1.46547
C         57.47537        69.93328        -0.85513
C         56.22874        69.16553        -1.12148
C         57.42000        71.41843        -0.86132
C         56.16119        72.09643        -1.13535
C         57.45695        74.31584        -1.04499
C         56.14700        73.55741        -1.12076
C         58.83980        54.94179        -0.01303
C         60.15614        57.02168        -0.32845
C         58.96649        56.27115        -0.47485
C         60.19737        58.43870        -0.52725
C         58.97834        59.17582        -0.73342
C         60.22606        61.27908        -0.79402
C         58.97912        60.59264        -0.81590
C         60.25814        62.70548        -1.17753
C         58.94886        63.45155        -1.27284
C         60.08749        65.67281        -0.95213
C         58.95257        64.93089        -1.13687
C         60.02307        67.13368        -0.83394
C         58.84838        67.81335        -1.17291
C         59.91247        69.98750        -0.44679
C         58.81367        69.32022        -1.22370
C         59.76804        71.34726        -0.10477
C         58.55426        72.09183        -0.45794
C         59.56462        74.18008         0.31442
C         58.56341        73.54756        -0.34814
C         61.39114        59.18405        -0.36203
C         62.75162        61.30304        -0.42281
C         61.41742        60.57932        -0.50853
C         62.64920        62.81296        -0.29287
C         61.51035        63.49624        -0.94588
C         62.46819        65.71727        -0.09688
C         61.40982        65.00809        -0.83091
C         62.33333        67.11234         0.13632
C         61.15839        67.83639        -0.29321
C         62.13539        69.97707         0.54122
C         61.06953        69.26271        -0.06905
C         62.03896        71.36382         0.79605
C         60.82535        72.02631         0.54270
C         61.81144        74.12893         1.51134
C         60.56488        73.38955         1.12534
C         63.65572        63.55433         0.24674
C         64.66269        65.71015         0.96610
C         63.60509        65.00558         0.35582
C         64.58091        67.10098         1.16966
C         63.39281        67.78058         0.80398
C         64.48698        69.94336         1.56326
C         63.26441        69.21016         1.10129
C         64.56881        71.40573         1.26593
C         63.27188        72.17821         1.07053
C         64.06357        74.31009         2.33902
C         63.07187        73.58209         1.57223
C         65.71579        67.83536         1.71629
C         66.91772        69.91126         2.47899
C         65.73493        69.19131         1.84180
C         66.79086        71.43182         2.48496
C         65.80148        72.04029         1.72860
C         66.35710        74.32858         3.42000
C         65.43060        74.04293         2.38232
C         67.72416        72.22623         3.20547
C         67.49672        73.54287         3.64429
O         57.61316        66.16931        -2.70522
O         38.61537        50.61360         1.27199
O         46.03608        47.92323        -0.85034
O         45.14878        61.60531         1.19332
O         42.66626        44.74277        -0.97027
O         63.44651        69.58841         2.54084
O         38.79429        59.02723        -2.88736
O         53.62820        63.40989         0.86281
O         42.86859        53.45499        -2.20997
O         47.15674        62.96547         1.76365
O         56.72064        69.39380         0.27576
O         38.63192        69.57072         2.18717
O         37.15419        67.00226         2.09087
O         52.00589        50.39684         2.19284
O         57.20822        56.53232        -2.09706
O         49.10805        55.95486         1.32223
O         39.18848        44.01179         1.73060
O         64.18026        71.90634        -0.06009
O         34.37042        69.34496         2.14907
O         39.37616        48.04625        -1.48637
O         54.67306        69.52145        -2.95752
O         36.61230        60.26270        -3.05494
O         53.01119        64.81274        -2.34790
O         65.98913        73.34854         1.27986
O         44.24131        35.24246         1.98722
O         61.88515        64.35313        -2.06536
O         45.86208        41.70982        -0.09739
O         59.64555        62.96702        -2.47980
O         46.77615        37.18647         2.50119
O         39.52064        60.82571         0.38688
O         31.03549        70.08683        -1.23790
O         41.04596        63.47366        -1.82864
O         45.56053        54.68028         1.19993
O         49.34678        64.30167         1.62270
O         48.69925        67.71331         1.20982
O         33.15359        54.91277         0.15612
O         51.62656        69.34355        -2.97875
O         32.10597        71.27774         2.15732
O         46.62980        46.64164         2.68133
O         29.64202        68.05097        -1.90371
O         59.88948        73.13567         2.41816
H         59.08453        72.60765         2.22714
O         45.30667        37.29294        -0.80146
H         45.19968        38.23245        -1.06212
O         44.33104        45.90117         2.49761
H         45.06635        46.29138         3.07213
O         35.36050        71.86866         2.96560
H         34.57590        71.42779         3.35932
O         32.91486        75.45209         1.39677
H         33.15280        75.25972         2.32687
O         67.10023        69.40827         3.80879
H         66.25082        69.49119         4.28904
O         38.55781        52.01803        -2.13218
H         39.32345        51.63499        -2.60952
O         38.13368        53.27450         1.26537
H         37.41391        53.79874         1.67453
O         33.43168        66.78348         2.05262
H         34.00152        67.16989         2.75387
O         50.03123        56.81389        -2.14061
H         50.91785        56.81134        -2.56319
O         49.05081        59.44733        -2.25284
H         49.22230        58.54725        -2.62851
O         46.74340        61.13540        -2.10396
H         47.48423        60.60202        -2.48776
O         41.36336        39.30065         2.69396
H         40.56108        38.86022         3.04340
O         45.07283        75.43723        -1.06997
H         45.01824        75.11510        -1.99280
O         34.06983        55.84607        -2.86674
H         34.11368        56.57921        -3.51773
O         47.90560        41.67280         3.00219
H         47.46709        42.51614         3.28501
O         46.36881        43.88573         2.89960
H         46.51411        44.87962         3.02105
O         44.28904        59.31543        -2.69909
H         43.54319        59.83018        -3.07411
O         46.75539        51.88058        -1.84832
H         46.08256        51.22254        -2.16556
O         32.16590        65.24846        -2.86359
H         31.54704        64.72214        -3.41268
O         27.30977        61.36931        -2.93442
H         27.96028        61.71702        -3.57849
O         34.05783        60.98189        -3.32338
H         34.95230        60.70884        -3.65382
O         63.51374        61.01586        -1.61164
H         63.07057        61.45164        -2.36948
O         57.13014        57.02125         1.23722
H         57.76969        56.39992         1.64055
O         42.41887        39.94746        -0.74978
H         43.10221        40.53506        -1.13714
O         44.81660        40.09384         3.00358
H         44.85747        39.19234         3.38756
O         49.67556        71.23367        -3.15787
H         50.36533        70.63411        -3.53843
O         45.40239        67.18994         2.12249
H         46.27532        66.80849         2.36142
O         54.36369        59.02965         1.39984
H         53.67098        59.51538         1.89535
O         36.12091        51.00867         1.75851
H         36.98086        51.26174         2.17011
O         40.28411        65.26711         1.98330
H         39.52776        65.75008         2.38304
O         56.48970        65.15756         0.59830
H         55.72983        64.70090         1.02278
O         53.95800        72.16380        -3.38462
H         54.13600        71.23671        -3.67991
O         48.40634        41.73945        -0.63663
H         49.05536        42.18995        -1.21574
O         58.97483        69.68455        -2.63976
H         59.78111        69.23964        -2.97695
O         53.94696        55.88485        -2.01090
H         54.10983        56.74567        -2.46932
O         44.59477        50.33350         1.62002
H         45.23831        50.00135         2.28150
O         57.87656        74.61677        -2.39196
H         57.94989        73.77288        -2.88407
O         54.91847        58.33057        -2.15185
H         55.70453        57.89491        -2.56659
O         44.47970        50.29094        -2.02993
H         43.83203        50.67446        -2.65876
H         23.71026        73.86030         5.19665
H         25.96006        74.23981         4.23969
H         28.22015        74.62968         3.24539
H         30.43720        75.06870         1.98219
H         32.63081        74.46595        -0.38263
H         35.23306        75.24652         0.65857
H         37.74606        75.26489         0.19824
H         40.19915        75.25512        -0.09222
H         42.67856        75.26691        -0.27568
H         45.31904        74.71708         0.83500
H         47.61263        75.26200        -0.82468
H         50.05198        75.24208        -1.21828
H         52.47687        75.25395        -1.09410
H         54.94459        75.32736        -1.15984
H         57.30005        75.29985        -0.53526
H         59.55893        75.27690         0.40927
H         61.66040        75.13422         1.93569
H         63.67001        75.06009         3.04309
H         66.14067        75.15071         4.11832
H         22.58637        68.44995         2.91315
H         21.56412        70.19891         4.36212
H         21.70576        72.41538         5.47702
H         24.75355        64.94458         0.11489
H         23.64962        66.69653         1.48162
H         27.10757        61.09111        -0.90736
H         25.83309        63.13578        -0.90372
H         29.43193        56.73713        -1.60137
H         28.22328        58.88359        -1.62749
H         32.01840        52.17785        -1.41433
H         30.76247        54.61556        -2.19956
H         34.27105        48.19401        -0.42445
H         33.15051        50.32051        -0.88122
H         36.53314        43.92551        -0.31224
H         35.44466        46.02146        -0.09452
H         39.10617        39.53086         0.68292
H         38.07350        41.50324        -0.22642
H         41.60639        35.30989         0.00281
H         40.33632        37.34076         0.64836
H         45.02739        31.87800        -0.18004
H         42.88538        33.09252        -0.18899
H         47.17816        33.01267         0.23400
H         48.46115        35.12766         0.54026
H         49.75025        37.32218         0.93281
H         50.97241        39.42258         1.25841
H         52.21017        41.56882         1.03276
H         53.42740        43.65482         0.67762
H         54.69518        45.75223         0.46297
H         55.99554        47.88500         0.43649
H         57.30718        50.03848         0.34337
H         58.55620        52.25431         0.15181
H         59.77628        54.41188         0.23276
H         61.06385        56.52187         0.04554
H         62.33119        58.65249        -0.15260
H         63.34004        60.89034         0.43686
H         64.53320        63.04534         0.67476
H         65.56389        65.16632         1.28490
H         66.60885        67.25473         1.99345
H         67.85650        69.65294         1.91666
H         68.59293        71.70512         3.63549
H         68.21626        73.92880         4.38374
