         657
 CSIRO Nanostructure Databank - Neutral Graphene Oxide Data Set
C          6.30387        31.95022        -1.81321
C          6.30098        33.30288        -1.64224
C          8.72415        27.59760        -1.61782
C          8.67651        29.00945        -1.44538
C          7.48430        29.75115        -1.66882
C          8.68013        31.81572        -1.17433
C          7.49619        31.14948        -1.58541
C          8.81448        33.28721        -1.43848
C          7.50837        34.04414        -1.35413
C          8.72905        36.15216        -0.96152
C          7.51402        35.40648        -1.20128
C          8.72622        37.51723        -0.80397
C         11.02152        23.22304        -1.03368
C         11.01883        24.65247        -1.02488
C          9.87590        25.41187        -1.37151
C         11.06100        27.50131        -0.84548
C          9.87921        26.82882        -1.28712
C         11.15891        28.99325        -1.01946
C          9.83628        29.70256        -0.97897
C         10.88576        31.77079         0.04371
C          9.81053        31.08817        -0.77377
C         11.03986        33.25665        -0.21400
C          9.96939        33.95207        -0.73107
C         11.21230        36.13635        -0.24047
C         10.00759        35.41322        -0.85294
C         11.02270        37.53400         0.12779
C          9.87951        38.24327        -0.31666
C         10.92939        40.38171         0.34508
C          9.80372        39.63488        -0.12178
C         10.87370        41.75906         0.45874
C         13.44464        18.95405        -0.63791
C         13.21143        20.26041         0.10137
C         12.09614        21.07807        -0.49649
C         13.48697        23.15892        -0.57206
C         12.15913        22.44118        -0.67545
C         13.29876        24.55785        -0.03070
C         12.16914        25.35125        -0.53844
C         13.39480        27.46202        -0.00254
C         12.19553        26.76311        -0.44847
C         13.38760        28.89770         0.11611
C         12.24255        29.65870        -0.21373
C         13.30740        31.69380         0.64848
C         12.19960        31.03440         0.07732
C         13.20949        33.12384         1.13118
C         12.19376        33.93119         0.34363
C         13.40842        35.97737         0.99252
C         12.27379        35.31969         0.38986
C         13.34637        37.44114         1.26500
C         12.06824        38.22821         0.87814
C         13.33532        40.38465         0.97128
C         12.13400        39.68539         0.74441
C         13.35564        41.81714         0.95462
C         12.02680        42.59513         0.92403
C         12.91036        44.87110         0.37684
C         12.07070        43.84922         0.05041
C         13.24605        46.08810        -0.30480
C         16.02360        14.78004        -1.20429
C         15.93843        16.18890        -0.93356
C         14.74773        16.88288        -0.99447
C         15.70541        18.78941         0.33860
C         14.59309        18.23174        -0.48497
C         15.67523        20.24670         0.73681
C         14.50482        21.03317         0.30129
C         15.77008        23.12472         0.54108
C         14.58541        22.40078         0.15377
C         15.80303        24.53407         0.53445
C         14.52871        25.27761         0.42826
C         15.76019        27.40977         0.65769
C         14.55362        26.74383         0.33496
C         15.70917        28.80977         0.88317
C         14.51761        29.56195         0.66953
C         15.58392        31.61495         1.60774
C         14.48060        30.97039         0.93141
C         15.67881        33.05561         1.72086
C         14.56061        33.82286         1.32979
C         15.68599        36.07093         1.98221
C         14.55915        35.25722         1.34162
C         15.82073        37.47274         1.39342
C         14.59160        38.21910         1.29383
C         15.80526        40.33079         0.99894
C         14.57548        39.62999         1.12953
C         15.83123        41.72310         0.80215
C         14.60773        42.47890         0.94668
C         15.85710        44.59970         0.44661
C         14.75414        43.89803         0.98324
C         15.75196        45.96399         0.02415
C         14.52498        46.64092        -0.30050
C         15.82875        48.79702        -0.64900
C         14.61491        47.98227        -1.01734
C         15.80702        50.19318        -0.62896
C         18.14836        10.30273        -0.72571
C         18.19095        11.81220        -0.72538
C         17.14470        12.58519        -1.11760
C         18.37361        14.63122        -0.43506
C         17.15021        14.02213        -0.92752
C         18.45494        16.10273        -0.43083
C         17.18726        16.89976        -0.55720
C         18.15996        18.71901         1.09763
C         17.07369        18.21307         0.15374
C         18.14950        20.23745         1.14263
C         16.97799        20.92067         1.00929
C         18.20619        23.14906         1.35200
C         16.92275        22.39848         1.12880
C         18.29594        24.51550         0.70222
C         16.99380        25.26447         0.75573
C         18.21765        27.37825         1.08110
C         16.99444        26.67716         0.85114
C         18.16112        28.85266         1.23668
C         16.81482        29.44457         1.49967
C         18.48954        31.75931         2.24017
C         16.59624        30.71550         2.02861
C         18.30559        33.10479         1.96278
C         16.96966        33.77423         2.10468
C         18.37025        36.06037         2.02787
C         17.00975        35.28681         2.12874
C         18.30696        37.39936         1.30484
C         17.04185        38.10491         1.24943
C         18.20898        40.15879         0.31855
C         17.10939        39.61205         1.20780
C         18.25617        41.64865         0.17830
C         17.04785        42.43729         0.51052
C         18.32318        44.46183        -0.07448
C         17.07296        43.81793         0.27474
C         18.28888        45.87049        -0.53915
C         16.99539        46.61906        -0.48001
C         18.27144        48.80398        -0.35566
C         17.03853        48.10032        -0.49267
C         18.24766        50.23413        -0.28677
C         17.00490        50.93778        -0.43829
C         18.21525        53.08587        -0.37528
C         17.01131        52.35018        -0.48196
C         18.25454        54.49041        -0.60897
C         20.72943         6.75919        -3.04151
C         20.71543         7.91063        -2.23520
C         19.48857         8.56032        -1.91204
C         20.69153        10.26817        -0.65006
C         19.46759         9.69951        -1.13712
C         20.63113        11.57235         0.07948
C         19.37749        12.40975        -0.07611
C         20.70721        14.52500         0.40292
C         19.47359        13.88760        -0.05097
C         20.72111        15.88086         0.73425
C         19.62919        16.73726         0.26825
C         20.68520        18.72928         1.15160
C         19.52391        18.11779         0.79432
C         20.69269        20.16422         1.51939
C         19.37719        20.91356         1.73967
C         20.65938        23.07751         1.24608
C         19.48424        22.39566         1.39420
C         20.71671        24.54730         1.26975
C         19.50518        25.28222         1.16632
C         20.70471        27.44022         1.48534
C         19.44732        26.68659         1.25643
C         20.76058        28.85685         0.93086
C         19.45607        29.62226         1.24145
C         20.79812        31.70795         1.62522
C         19.58984        30.99725         1.77473
C         20.74305        33.10560         1.67273
C         19.49805        33.82747         1.65231
C         20.78547        35.78203         0.93566
C         19.51419        35.21496         1.51494
C         20.77082        37.28676         0.80699
C         19.46620        37.99616         0.85236
C         20.77956        40.18067         0.47950
C         19.49528        39.39757         0.35544
C         20.75105        41.66325         0.43081
C         19.55636        42.35072         0.18286
C         20.85197        44.46422        -0.23080
C         19.52516        43.77441         0.00039
C         20.80216        45.96141        -0.08781
C         19.60691        46.64238        -0.71446
C         20.70713        48.82398        -0.14030
C         19.51226        48.10558        -0.32765
C         20.67299        50.23594        -0.01993
C         19.46217        50.95999        -0.12171
C         20.64362        53.17085        -0.00573
C         19.45264        52.40764        -0.14099
C         20.64928        54.57345        -0.14588
C         19.44117        55.21105        -0.54540
C         20.55308        57.55773        -0.63177
C         19.47521        56.58414        -1.16739
C         20.64776        58.65748        -1.65257
C         23.13851         4.31173        -4.47293
C         21.95174         4.94341        -4.17919
C         23.16567         6.58273        -2.78021
C         21.93384         6.09431        -3.33413
C         23.16845         7.76015        -1.97839
C         21.94273         8.43550        -1.70738
C         23.18120        10.06140        -0.22658
C         21.90661         9.63741        -0.92935
C         23.20049        11.54447         0.15798
C         21.92062        12.29854         0.35476
C         23.16006        14.47069         0.63556
C         21.93170        13.77924         0.44724
C         23.18697        15.78855         1.10007
C         21.89836        16.50808         1.44302
C         23.15037        18.68823         1.11414
C         21.96620        18.01323         1.16291
C         23.16881        20.14931         0.66178
C         21.95736        20.89543         1.23516
C         23.17873        23.01468         1.55060
C         21.94979        22.37003         0.89379
C         23.20327        24.50622         1.29880
C         21.96643        25.21219         1.36025
C         23.25320        27.40908         1.04658
C         22.01877        26.68689         1.45761
C         23.24947        28.86113         1.13265
C         22.04860        29.56117         1.31762
C         23.24087        31.66722         1.83550
C         22.06690        30.98424         1.56929
C         23.25749        33.08995         2.19752
C         21.94277        33.86647         2.00984
C         23.19947        35.98619         1.90081
C         22.00067        35.27043         1.68857
C         23.23694        37.39571         1.63208
C         22.02937        38.06389         1.08934
C         23.23175        40.26084         1.10676
C         21.90308        39.56280         1.30349
C         23.20650        41.69664         0.90984
C         21.98710        42.35307         0.63712
C         23.19841        44.60952         0.85955
C         21.93026        43.82359         0.62486
C         23.22179        46.01844         0.43097
C         21.97573        46.67724         0.10657
C         23.18550        48.81866        -0.05037
C         21.98141        48.12545        -0.02993
C         23.20540        50.26683        -0.10532
C         21.93452        50.95560         0.19505
C         23.17657        53.16932        -0.06386
C         21.91716        52.45934         0.22370
C         23.18098        54.57594         0.03850
C         21.90931        55.36500         0.04843
C         23.13543        57.51266        -0.86538
C         21.89971        56.86855        -0.31130
C         23.07455        58.44006        -1.93362
C         21.80396        59.01580        -2.32569
C         22.96549        60.41072        -3.97138
C         21.78706        60.01227        -3.35141
C         24.35378         4.78233        -3.91908
C         25.67917         6.30002        -2.44434
C         24.37719         5.88692        -3.08389
C         25.67120         7.70793        -1.89875
C         24.43184         8.34935        -1.56965
C         25.67729        10.27214        -0.70166
C         24.44722         9.59729        -0.91832
C         25.70837        11.63281        -0.26267
C         24.42619        12.34663        -0.15388
C         25.72395        14.42129         0.52529
C         24.42846        13.81608         0.20838
C         25.76077        15.64937         1.40224
C         24.44696        16.45480         1.43002
C         25.69384        18.74058         1.14440
C         24.44023        18.01534         1.38825
C         25.70705        20.13986         0.96871
C         24.45049        20.90249         1.01596
C         25.72158        23.04603         1.25631
C         24.43909        22.26217         1.15162
C         25.63234        24.44752         0.63706
C         24.39032        25.19984         1.07647
C         25.64018        27.12251         0.28327
C         24.38584        26.60670         0.79374
C         25.64069        29.23753         0.56867
C         24.49486        29.62505         1.20224
C         25.70468        31.82291         1.32721
C         24.56681        30.96039         1.91135
C         25.73397        33.21912         1.91447
C         24.50327        33.88022         2.12737
C         25.68119        36.07188         2.47618
C         24.42642        35.28888         2.18619
C         25.67924        37.48060         1.90804
C         24.44268        38.13496         1.65835
C         25.69106        40.23992         1.12385
C         24.40251        39.55221         1.30396
C         25.72124        41.74100         0.93922
C         24.43256        42.46136         0.98271
C         25.70794        44.58562         0.91190
C         24.45893        43.85127         0.95249
C         25.64976        46.00011         0.75787
C         24.44496        46.69815         0.40908
C         25.63182        48.79484        -0.20414
C         24.45603        48.11839         0.04531
C         25.70755        50.31360        -0.19395
C         24.36517        50.99067        -0.27941
C         25.59420        53.15748        -0.44709
C         24.38171        52.44275        -0.24668
C         25.64019        54.53567        -0.21038
C         24.44606        55.16343         0.21602
C         25.62128        57.40794        -1.14579
C         24.41788        57.15930        -0.42194
C         25.53629        58.33241        -2.19473
C         24.28279        58.89533        -2.55822
C         24.19621        59.86865        -3.59120
C         26.87331         8.32323        -1.61274
C         28.12767        10.31136        -0.83722
C         26.91503         9.63477        -1.05217
C         28.15554        11.64865        -0.37430
C         26.90787        12.33953        -0.14216
C         28.18549        14.40359         0.41202
C         26.91473        13.72765         0.28616
C         28.22252        15.81006         0.61190
C         27.01911        16.50800         1.15618
C         28.16058        18.73924         0.61462
C         26.97410        18.01600         1.10583
C         28.15771        20.12655         0.60769
C         26.94033        20.83093         0.88761
C         28.22056        23.02236         0.95968
C         26.90602        22.31320         0.60284
C         28.16801        24.52364         0.72818
C         26.96391        25.19672         0.77907
C         28.15259        27.46960         0.23826
C         26.90230        26.61778         0.53421
C         28.14056        28.92301         0.78660
C         26.97013        29.70787         0.91776
C         28.21708        31.72577         1.46911
C         27.00664        31.05268         1.36218
C         28.17280        33.23572         1.35069
C         26.96430        33.94823         1.95018
C         28.24643        36.09662         2.41639
C         26.96537        35.31233         2.18639
C         28.20741        37.49394         1.84623
C         26.91572        38.19504         1.81264
C         28.19429        40.32056         1.72156
C         26.90437        39.56513         1.56463
C         28.16293        41.80115         1.42289
C         26.99099        42.48245         1.18639
C         28.22553        44.63691         1.00164
C         26.95836        43.91908         1.05505
C         28.20012        46.04178         0.83765
C         26.91494        46.72444         0.80705
C         28.12258        48.41791        -0.56076
C         26.89645        48.11299         0.14518
C         27.99638        50.44221        -1.33742
C         26.81119        51.01952        -0.98069
C         28.11973        53.18050        -0.77792
C         26.78732        52.51581        -1.09314
C         28.09792        54.55875        -0.58000
C         26.86097        55.30313        -0.49824
C         26.82829        56.64236        -0.87791
C         29.37621        12.32996        -0.20227
C         30.62716        14.42346         0.13002
C         29.41069        13.70907         0.12783
C         30.63546        15.84252         0.13896
C         29.38281        16.53401         0.31699
C         30.55661        18.74869        -0.25082
C         29.23966        17.98082        -0.10990
C         30.56225        20.21381        -0.02108
C         29.37520        20.86400         0.26963
C         30.62432        23.10706         0.07780
C         29.32941        22.33184         0.20638
C         30.61745        24.55045         0.43407
C         29.42999        25.24885         0.58540
C         30.61975        27.40986         0.74591
C         29.43039        26.71521         0.60042
C         30.62871        28.86280         0.89278
C         29.37970        29.59722         0.99232
C         30.68722        31.72739         1.25488
C         29.42195        31.00357         1.26005
C         30.73160        33.11912         1.39904
C         29.49092        33.85573         1.75229
C         30.70207        36.06667         1.55987
C         29.52225        35.32605         2.05412
C         30.61677        37.40452         1.21233
C         29.34257        38.10988         1.38907
C         30.59451        40.24968         0.95472
C         29.23540        39.54550         0.88860
C         30.46817        41.73472         0.52668
C         29.50887        42.50248         1.48967
C         30.74661        44.64636         0.91595
C         29.45356        43.95574         1.09796
C         30.76948        46.13087         0.68853
C         29.43709        46.85368         0.71821
C         30.54442        48.80361        -0.57730
C         29.36670        48.07368        -0.11902
C         30.46516        50.18898        -0.95529
C         29.31364        51.02573        -1.12134
C         29.32321        52.42008        -0.86525
C         31.84507        16.55779         0.04198
C         33.08814        18.79079         0.07394
C         31.87875        18.00193        -0.16929
C         33.08278        20.17397         0.05471
C         31.82389        20.93079        -0.03212
C         33.08371        22.98374         0.56686
C         31.85314        22.31222         0.09800
C         33.09361        24.45281         0.83225
C         31.93276        25.26733         0.26291
C         33.09510        27.34761         0.90974
C         31.90439        26.70273         0.74122
C         33.15928        28.84079         1.11777
C         31.83267        29.54484         0.97224
C         33.11356        31.64671         0.76248
C         31.89622        30.97988         1.03192
C         33.26000        33.07905         1.03189
C         31.99914        33.84261         1.52526
C         33.16531        36.06447         0.76840
C         31.98350        35.34888         1.44927
C         32.86174        37.36067         0.13182
C         31.71256        38.03749         0.48630
C         32.71311        40.20973        -0.48500
C         31.56097        39.47344         0.09244
C         32.80293        41.68447        -0.34402
C         31.81578        42.38991         0.26601
C         33.04100        44.54992        -0.29826
C         31.94567        43.85559         0.43739
C         32.99932        45.98620        -0.41176
C         31.88524        46.75512        -0.07461
C         31.77738        48.12030        -0.48888
C         34.31998        20.89642         0.13246
C         35.52777        23.04084         0.07391
C         34.36605        22.27844         0.32127
C         35.55421        24.45576         0.17333
C         34.46746        25.11376         1.02768
C         35.60115        27.35344         0.32613
C         34.40734        26.63713         0.88569
C         35.42413        28.74835        -0.18041
C         34.16919        29.48641         0.17884
C         35.36952        31.63233        -0.24188
C         34.23179        30.95571         0.21610
C         35.38832        33.07947        -0.22780
C         34.35647        33.79204         0.37004
C         35.21414        35.82650        -0.76013
C         34.46874        35.30706         0.45151
C         35.01903        37.21415        -1.26136
C         33.75038        37.99403        -0.94767
C         35.08688        40.14914        -1.38305
C         34.02620        39.45024        -0.55565
C         35.07162        41.51805        -1.48349
C         33.82474        42.34687        -1.24399
C         34.00516        43.81322        -0.94511
C         36.63343        25.17083        -0.33854
C         37.80785        27.31133        -0.75664
C         36.74086        26.60169        -0.26876
C         37.95142        28.79278        -0.48799
C         36.62720        29.51943        -0.49415
C         37.72547        31.62196        -1.10837
C         36.56416        30.89971        -0.62647
C         37.68344        33.01212        -1.26068
C         36.53620        33.76585        -0.82430
C         37.52648        35.83347        -1.75730
C         36.49395        35.13588        -1.04060
C         37.38409        37.19852        -2.06527
C         36.21072        37.95131        -1.76083
C         36.19099        39.34129        -1.84073
C         38.96794        29.50759        -1.33560
C         39.96744        31.59827        -2.18038
C         38.88973        30.86695        -1.54061
C         39.91681        32.94854        -2.33694
C         38.77489        33.71909        -1.89458
C         38.69035        35.08604        -2.12610
O         17.45851        46.00152        -1.77357
O         24.28003        13.35437        -1.20402
O         18.63212        29.62168         0.00176
O         25.83740        40.85541        -0.22391
O         17.50946        31.12405         2.99276
O         12.32467        37.76125         2.26087
O         31.56934        39.78949        -1.33874
O         24.38204        17.25867         2.65878
O         27.00512        47.98062         1.59857
O         15.35453        19.15647         1.69803
O         35.42006        27.25375         1.77059
O         21.69493        37.65879        -0.27646
O         25.56389        28.30043        -0.46957
O         30.34629        46.88464         1.86397
O         29.71061        34.33490         3.13747
O         17.40923        18.17529        -1.25776
O         27.98265        49.09877        -1.76250
O         22.19216        44.40018         1.93431
O         27.93878        33.43388        -0.04351
O         19.54354        16.65105        -1.22511
O         34.30690        28.88743        -1.14143
O         21.64785        20.51587         2.59722
O         13.52448        24.75232         1.39273
O         21.97307        51.69670         1.48011
O         17.29746        22.96519         2.45493
O         21.90074        56.42183         1.07341
O         31.22982        18.39164        -1.48840
O         17.90516        40.72422        -0.96665
O         16.93429        34.52003         3.38622
O         32.79516        23.55122         1.92058
O         32.99776        36.05287         2.22602
O         21.40951        27.21481         2.72646
O         13.71589        44.65534         1.53717
O         11.08387        35.92490        -1.70468
O         19.69151        11.69095         1.18517
O         20.37547        39.60216        -0.78724
O         23.10300        20.14081        -0.74185
O         27.33297        17.24845         2.38245
O         29.72803        22.86296        -1.07519
O         32.99911        33.36525         2.46171
O         24.53636        56.44779         0.77604
O         22.44774        33.47008         3.34056
O         31.81964        44.23371         1.86391
O         22.69067        11.74759         1.49926
O         34.55785        36.03348        -2.05246
O         33.16135        42.34028        -2.56909
H         32.92552        41.40826        -2.77317
O         31.14523        40.15494         2.27778
H         30.39929        40.10850         2.92480
O         26.77832         6.10355        -3.34135
H         26.63732         6.67036        -4.12695
O         28.70402        17.85461        -1.47562
H         29.48218        17.87353        -2.08306
O         35.38726        35.59164         1.54006
H         34.85919        35.53973         2.37172
O         13.96536        23.35856        -1.93818
H         14.03219        22.48220        -2.37209
O         25.96493        23.24286         2.68402
H         25.86249        22.37047         3.12279
O         21.69731        16.36857         2.88443
H         22.51866        16.71063         3.31021
O          9.18924        33.34883        -2.86666
H          9.47464        34.26895        -3.05748
O         21.49790        39.78555         2.68339
H         22.22961        39.51119         3.27523
O         28.57496        40.19223         3.13283
H         28.76077        41.09423         3.48664
O         26.58137        52.77448        -2.53892
H         27.35950        52.41354        -3.01563
O         17.81687        18.25190         2.42942
H         18.17427        18.90660         3.07359
O         19.90196        46.61814        -2.15706
H         19.01962        46.59438        -2.60559
O         26.13871        50.64598         1.18609
H         26.39673        49.82332         1.66237
O         28.54589        22.80682         2.35402
H         27.84510        23.24799         2.88999
O         26.81793        22.34673        -0.83498
H         25.93390        22.01890        -1.10654
O         17.10153         9.78736        -1.53580
H         16.24528         9.99938        -1.11434
O         17.56869        39.98575         2.55624
H         17.02424        39.49643         3.20996
O         34.54558        39.40059         0.79751
H         34.71110        40.31548         1.10719
O         23.03884        22.86315         2.98841
H         23.79969        23.32038         3.40777
O         10.37448        31.68646         1.41866
H         11.06742        32.07543         2.01201
O         38.46611        28.87691         0.89800
H         38.51407        29.82733         1.13688
O         15.21244        36.35630         3.32913
H         15.49772        35.59913         3.89401
O         14.67341        47.72735        -2.43767
H         15.46965        47.17945        -2.60844
O         19.75110        56.39062        -2.56718
H         19.11851        55.73020        -2.91841
O         12.73960        19.88866         1.43701
H         13.50543        19.45950         1.89423
O         11.60969        29.15205        -2.42818
H         10.90356        28.78664        -3.00383
O         20.88866        35.21721        -0.41016
H         21.40805        35.86037        -0.94778
O         24.89164        30.79754         3.31831
H         24.13776        30.35388         3.76044
O         25.46864        32.10333        -0.07887
H         26.29611        32.59053        -0.37775
O         33.63951        29.12903         2.45784
H         33.08025        28.64373         3.09874
O         30.00221        42.44242         2.85529
H         30.81867        43.00553         2.88264
O         11.73372        42.99997         2.29461
H         12.41897        43.66578         2.53998
O         18.52592        24.20758        -0.71853
H         18.79703        25.03357        -1.17212
O         32.20956        25.31816        -1.17317
H         31.44764        25.75097        -1.61507
O         21.25424        44.21311        -1.61247
H         20.78355        44.87848        -2.17356
O         33.01527        38.02678        -2.18760
H         33.12408        37.14468        -2.61081
O         12.62929        33.01897         2.49508
H         12.60972        33.92453         2.87534
O         28.75500        39.48932        -0.46189
H         29.45166        39.10741        -1.03697
O         20.04232        58.13126         0.58988
H         20.45524        57.62997         1.33262
O         28.31895        36.32028         3.87065
H         28.76169        35.52093         4.24655
O         25.64774        36.28198         3.94021
H         26.58850        36.45564         4.21716
O         20.86586        28.67581        -0.50773
H         20.03541        29.03678        -0.90681
O         25.91440        15.11156         2.74092
H         26.11323        15.88384         3.32073
O         18.72713        36.41925         3.39648
H         18.44217        35.66669         3.96609
O         25.40021        24.30135        -0.78994
H         25.46198        25.18909        -1.20192
O         28.20821        27.61506        -1.21376
H         27.38768        28.08836        -1.48266
O         23.18440         9.33134         1.03762
H         23.09816         8.37701         0.83268
O         22.06728        22.51424        -0.53289
H         22.48152        21.67177        -0.90296
O         34.86318        24.83324         2.38655
H         35.48732        25.54832         2.65172
O         19.12623        20.84007         3.17578
H         19.98999        21.02362         3.61518
O         29.81411        41.82648        -0.75583
H         30.30125        41.23791        -1.38272
H          5.36946        31.42722        -2.06528
H          5.36118        33.86708        -1.74180
H          7.82027        27.07390        -1.96304
H          6.56411        29.22416        -1.96145
H          6.56684        35.96668        -1.24603
H          7.78895        38.07746        -0.94014
H         10.07558        22.70166        -1.24707
H          8.96223        24.89632        -1.70165
H          8.88311        40.17249        -0.38964
H          9.93573        42.28043         0.21513
H         12.60389        18.52143        -1.20189
H         11.12784        20.56662        -0.61651
H         11.42240        43.91929        -0.83368
H         12.46212        46.60702        -0.87696
H         15.11875        14.27016        -1.56857
H         13.84370        16.36676        -1.35225
H         13.68293        48.57219        -0.83443
H         14.85932        50.72852        -0.78726
H         17.96700         9.99171         0.35019
H         16.25275        12.12149        -1.56574
H         16.06683        52.88782        -0.65185
H         17.32759        55.00508        -0.90601
H         19.78393         6.37664        -3.45321
H         18.54266         8.14283        -2.28398
H         18.47167        57.08159        -1.05320
H         19.70603        59.17228        -1.89836
H         23.15040         3.43134        -5.13035
H         21.00328         4.57651        -4.59679
H         22.93195        61.16971        -4.76546
H         20.82589        60.45702        -3.64517
H         25.29600         4.26507        -4.14896
H         25.86421         5.60661        -1.57333
H         26.43298        58.59745        -2.77323
H         25.11922        60.20262        -4.08615
H         27.81449         7.80690        -1.85168
H         29.07664         9.80669        -1.07161
H         29.04530        55.12098        -0.57782
H         27.77193        57.08056        -1.24219
H         30.32059        11.80409        -0.40617
H         31.57165        13.88249        -0.02618
H         31.43321        50.71919        -0.95948
H         30.27311        52.91158        -0.60320
H         32.79798        16.01096         0.09454
H         34.03195        18.25449         0.25373
H         33.81753        46.47003        -0.96788
H         32.68142        48.60476        -0.88912
H         35.25887        20.33987        -0.01021
H         36.42025        22.52340        -0.31324
H         35.89177        42.01611        -2.02630
H         34.79674        44.34473        -1.49715
H         37.44618        24.61656        -0.83445
H         38.65227        26.77832        -1.22074
H         38.23108        37.72497        -2.53184
H         37.07695        39.85889        -2.24126
H         39.87310        28.96186        -1.64419
H         40.84436        31.03156        -2.52637
H         40.74950        33.48162        -2.81920
H         39.51162        35.59977        -2.64843
