         647
 CSIRO Nanostructure Databank - Neutral Graphene Oxide Data Set
C          5.99110        31.58440         0.14510
C          5.99270        32.90927        -0.09828
C          8.30103        27.23944         0.09588
C          8.34039        28.74056         0.26385
C          7.23885        29.42686         0.60632
C          8.47430        31.60795         0.30275
C          7.20579        30.92313         0.75977
C          8.46420        33.00919         0.21548
C          7.19696        33.72215         0.09266
C          8.40735        35.88582         0.32674
C          7.17183        35.08454         0.03316
C          8.42748        37.26613        -0.24883
C         10.83864        23.01475         1.31841
C         10.78523        24.27664         0.49196
C          9.58363        25.19006         0.64483
C         10.84695        27.31333         0.36147
C          9.60786        26.53029         0.40198
C         10.85236        28.67919         0.26160
C          9.60775        29.41685        -0.19958
C         10.89657        31.58514        -0.07937
C          9.66563        30.89667         0.08201
C         10.92838        33.01397        -0.06614
C          9.69281        33.72670         0.06733
C         10.90249        35.84084        -0.04849
C          9.68155        35.13388         0.03964
C         10.89958        37.26176        -0.22713
C          9.63555        37.95508        -0.39664
C         10.85320        40.06636        -0.77200
C          9.64442        39.34001        -0.71500
C         10.84765        41.48001        -0.95313
C         13.26668        18.92433         2.54165
C         13.27903        20.26922         2.18267
C         12.06264        20.95910         1.93992
C         13.31280        23.01244         1.43516
C         12.03462        22.32343         1.53242
C         13.27383        24.45754         1.21173
C         12.09122        25.07314         0.53703
C         13.40462        27.28799         0.57642
C         12.12177        26.56658         0.43566
C         13.43571        28.74708         0.51078
C         12.09643        29.47463         0.39849
C         13.37771        31.53729        -0.18557
C         12.13817        30.87365        -0.02857
C         13.38296        32.95749        -0.42055
C         12.16627        33.71295        -0.13746
C         13.32507        35.92898         0.24990
C         12.14215        35.12902         0.03344
C         13.37675        37.26418        -0.15611
C         12.12954        37.96382        -0.36853
C         13.33070        40.13636        -0.56699
C         12.08825        39.36546        -0.57953
C         13.29886        41.55069        -0.94336
C         12.04392        42.23848        -1.00748
C         13.26747        44.37187        -1.00371
C         12.05411        43.65498        -1.06617
C         13.30419        45.80158        -0.88874
C         15.68136        14.90508         1.13395
C         15.68489        16.15538         1.84811
C         14.50281        16.85104         2.13757
C         15.78086        18.93436         2.72076
C         14.48766        18.14241         2.93282
C         15.75929        20.33729         2.24715
C         14.55051        20.98841         2.05933
C         15.78288        23.11851         1.63824
C         14.52510        22.39377         1.73137
C         15.80153        24.45023         1.25925
C         14.57773        25.22237         1.13915
C         15.82491        27.24056         0.21897
C         14.60047        26.59308         0.58192
C         15.82542        28.60123        -0.12211
C         14.65787        29.40688         0.03168
C         15.80987        31.48409        -0.68828
C         14.62353        30.80030        -0.26487
C         15.77581        32.84242        -1.02868
C         14.54837        33.55216        -0.95810
C         15.75909        35.73204        -1.44242
C         14.52226        34.89125        -1.63398
C         15.70218        37.15697        -1.28158
C         14.75435        37.89357        -0.33596
C         15.77377        40.13924        -1.23004
C         14.67055        39.40498        -0.58725
C         15.73805        41.52066        -1.28812
C         14.51098        42.24578        -1.04986
C         15.74403        44.38552        -0.91436
C         14.50804        43.67309        -1.03959
C         15.73975        45.78012        -0.64631
C         14.48384        46.48607        -0.68850
C         15.66434        48.62062         0.00743
C         14.43258        47.99332        -0.61813
C         15.77686        50.07517        -0.05580
C         18.01674        11.09039        -0.93297
C         18.02878        12.25457        -0.16633
C         16.86884        13.04077         0.04015
C         18.11524        14.58928         1.54236
C         16.84673        14.17655         0.88749
C         18.17573        15.96152         2.21446
C         16.92917        16.71238         2.28573
C         18.24589        18.82783         1.78231
C         17.02411        18.15000         2.48998
C         18.26181        20.31057         2.10220
C         17.02365        21.01377         2.05396
C         18.28134        23.08906         1.74773
C         17.04109        22.40721         1.81261
C         18.28821        24.52334         1.40898
C         17.05399        25.05696         0.76559
C         18.37630        27.09452        -0.13683
C         17.05701        26.41385         0.13202
C         18.38200        28.53432        -0.54741
C         17.04549        29.22059        -0.69527
C         18.35844        31.37555        -1.08813
C         17.02958        30.68505        -0.97932
C         18.33557        32.84992        -1.36916
C         16.97447        33.53324        -1.70758
C         18.22496        35.77811        -1.23224
C         16.96576        35.03714        -1.47477
C         18.24089        37.19473        -1.71700
C         16.88605        37.89211        -1.74718
C         18.21933        40.11630        -2.01640
C         16.89838        39.39094        -1.81835
C         18.26202        41.60899        -1.81095
C         16.95157        42.32224        -1.57874
C         18.20690        44.33873        -0.78251
C         16.98085        43.70044        -1.04793
C         18.18219        45.69501        -0.31693
C         16.97594        46.40567        -0.30150
C         18.21876        48.55475         0.24951
C         16.94260        47.81428         0.16970
C         18.20349        49.96454         0.38421
C         16.97396        50.72580         0.26017
C         18.21738        52.81859         0.71527
C         17.02539        52.14006         0.37858
C         18.23012        54.24937         0.81172
C         20.25356         7.43074        -3.38633
C         20.31348         8.58007        -2.55003
C         19.13884         9.24535        -2.12036
C         20.48941        10.81683        -0.81503
C         19.20879        10.35996        -1.26213
C         20.55181        11.85938         0.22404
C         19.28885        12.62616         0.53385
C         20.66704        14.46522         1.72859
C         19.41447        14.09707         0.92708
C         20.72222        15.89763         2.25744
C         19.47227        16.67773         2.21428
C         20.74679        18.76242         2.29408
C         19.51328        18.06231         2.14282
C         20.72193        20.22640         2.40706
C         19.48297        20.99785         2.10807
C         20.76183        23.15996         1.81376
C         19.51144        22.42250         1.95218
C         20.84145        24.50990         1.46712
C         19.57977        25.25752         1.26294
C         20.93565        27.22092         0.35152
C         19.65059        26.44815         0.35762
C         20.98407        28.66445        -0.15968
C         19.60841        29.35023        -0.32778
C         20.79993        31.50145        -0.40582
C         19.57669        30.70402        -0.52590
C         20.75012        32.92266        -0.77657
C         19.58080        33.59975        -1.02840
C         20.82057        35.90594        -1.00979
C         19.52622        35.08383        -0.98699
C         20.76726        37.17598        -1.90237
C         19.49906        37.99817        -1.71491
C         20.74038        40.15193        -2.20978
C         19.48603        39.34725        -1.90398
C         20.74149        41.53654        -1.52196
C         19.49989        42.25965        -1.32597
C         20.67343        44.20364        -0.32617
C         19.44958        43.57893        -0.86455
C         20.72125        45.67714        -0.07440
C         19.40560        46.31702         0.33930
C         20.64714        48.52923         0.40290
C         19.42910        47.83202         0.24775
C         20.63931        49.91597         0.59693
C         19.42669        50.66258         0.60608
C         20.64194        52.75481         1.32087
C         19.41998        52.06662         0.86819
C         20.65464        54.26485         1.34344
C         19.40208        54.98566         1.01608
C         20.66174        57.11324         1.09735
C         19.43998        56.39315         0.99387
C         20.67140        58.52301         1.08443
C         22.51457         5.20822        -5.39012
C         21.35265         5.74740        -4.84807
C         22.70342         7.35479        -3.59760
C         21.42525         6.83674        -3.93409
C         22.85138         8.39806        -2.52326
C         21.57980         9.12544        -2.18464
C         22.99116        10.85668        -1.10638
C         21.67293        10.26534        -1.36395
C         23.12498        11.95197        -0.12369
C         21.89176        12.44987         0.59367
C         23.15733        14.60804         1.19062
C         21.94666        13.76615         1.32579
C         23.25368        15.87119         1.98779
C         22.00256        16.63861         2.25816
C         23.26051        18.79914         2.49270
C         21.98343        18.03558         2.34195
C         23.31592        20.25132         2.23679
C         22.06068        20.98999         2.32727
C         23.32951        23.12250         1.71270
C         22.00834        22.37452         1.78453
C         23.31416        24.59925         1.73326
C         22.08409        25.26528         1.40050
C         23.27202        27.46176         1.23752
C         22.09248        26.66000         1.10510
C         23.23989        28.86045         1.01076
C         21.88404        29.52855         0.73963
C         23.09554        31.80915         0.48766
C         21.92989        30.94902         0.17238
C         23.18101        33.15948        -0.15494
C         22.08716        33.54920        -1.13022
C         23.31706        35.87564        -1.24358
C         22.04667        35.06947        -1.37788
C         23.25480        37.35159        -1.35354
C         22.03488        38.00002        -1.70386
C         23.27476        40.11449        -2.01484
C         22.00899        39.37410        -1.90045
C         23.21661        41.61430        -1.76341
C         21.94046        42.18156        -1.28811
C         23.26421        44.20150        -0.43365
C         21.97687        43.43514        -0.51266
C         23.21330        45.67772        -0.15823
C         21.89615        46.35864         0.02217
C         23.15289        48.61984         0.09127
C         21.95566        47.78369         0.56347
C         23.14143        49.96293         0.28315
C         21.92764        50.60152         0.84086
C         23.20080        52.83675         1.02880
C         21.95693        52.04156         1.21526
C         23.15207        54.25709         1.17177
C         21.94934        54.96973         1.20534
C         23.12376        57.13352         0.98903
C         21.92366        56.40522         1.11391
C         23.12674        58.54006         0.99750
C         21.88024        59.25256         1.07887
C         23.11231        61.36010         1.07569
C         21.90413        60.67352         1.10574
C         23.77066         5.73445        -5.06690
C         25.15890         7.41234        -3.83880
C         23.87919         6.82364        -4.17193
C         25.24954         8.62010        -3.16778
C         23.97133         9.37573        -2.86726
C         25.37689        11.13949        -1.70019
C         24.11091        10.44225        -1.79901
C         25.45935        12.42027        -1.14637
C         24.34532        12.87795        -0.24759
C         25.18671        15.26240         0.09742
C         24.18190        14.25037         0.34465
C         25.59269        16.22866         0.96447
C         24.58968        16.61075         2.00081
C         25.86506        18.80703         2.21238
C         24.56620        18.06296         2.36486
C         25.82886        20.28098         2.21844
C         24.55656        20.94279         2.13574
C         25.74385        23.10968         2.09853
C         24.55221        22.37323         2.01719
C         25.69510        24.53667         2.22427
C         24.50141        25.30443         1.98656
C         25.74627        27.67716         1.79515
C         24.54730        26.76164         1.59418
C         25.62346        29.12534         1.56592
C         24.41295        29.68290         1.17633
C         25.64674        31.75488         0.38661
C         24.35869        31.21039         1.11050
C         25.65074        33.26902         0.23846
C         24.47781        33.89864        -0.23966
C         25.59987        36.13370        -0.15133
C         24.49286        35.23439        -0.65014
C         25.67565        37.41017        -0.93517
C         24.51252        38.04298        -1.37231
C         25.75636        40.13941        -1.84012
C         24.57154        39.43344        -1.79177
C         25.73965        41.62319        -1.93737
C         24.48649        42.32349        -1.51014
C         25.73812        44.37610        -0.91679
C         24.47852        43.59854        -1.04165
C         25.64914        45.86349        -1.02498
C         24.36559        46.51925        -0.63432
C         25.56627        48.72796        -0.87749
C         24.48751        47.93023        -0.08267
C         25.58871        50.21349        -0.48514
C         24.32736        50.83492         0.05106
C         25.63469        52.91298         0.54805
C         24.38647        52.19227         0.65018
C         25.67402        54.27439         0.83343
C         24.45043        55.01866         1.31501
C         25.66543        57.16495         0.90328
C         24.39118        56.38725         0.64725
C         25.61094        58.55798         0.97715
C         24.37244        59.26703         0.97820
C         24.33430        60.67503         1.02121
C         26.48808         9.23387        -2.85839
C         27.85437        11.04933        -1.96905
C         26.57694        10.47786        -2.21162
C         27.97960        12.33641        -1.43432
C         26.75784        13.07393        -1.16323
C         28.10022        15.08403        -0.51596
C         26.90193        14.42961        -0.95958
C         28.09421        16.28350         0.17530
C         26.83057        17.06715         0.59782
C         28.41703        18.89917         1.67935
C         27.09558        18.11385         1.68888
C         28.25533        20.39502         1.64054
C         27.03311        21.01948         1.98971
C         28.22103        23.20782         2.00862
C         27.00885        22.45292         2.04855
C         28.18555        24.59682         2.37169
C         26.92089        25.10795         2.66577
C         28.19649        27.76201         2.36645
C         26.94587        27.27191         2.57358
C         28.24830        29.15947         1.82504
C         26.92095        29.86161         1.52200
C         27.79477        32.20190         1.51206
C         26.81489        31.31217         1.21906
C         28.05901        33.44024         0.81949
C         26.86655        34.02411         0.30205
C         28.14668        36.05529        -0.02942
C         26.91437        35.39830        -0.03954
C         28.13721        37.50073        -0.33287
C         26.98156        38.02806        -1.12798
C         28.32677        40.21587        -1.43962
C         27.05706        39.45695        -1.67058
C         28.34535        41.65974        -1.67783
C         27.04033        42.35327        -1.83478
C         28.21813        44.59303        -1.54525
C         27.02279        43.74121        -1.28814
C         28.18104        45.95723        -0.99568
C         26.92203        46.63934        -0.89329
C         28.08347        48.71840        -0.12956
C         26.88179        47.99981        -0.66787
C         28.14373        50.17965        -0.61294
C         26.87029        50.90729        -0.23401
C         28.13330        52.94858         0.30411
C         26.86928        52.21984         0.18266
C         28.11398        54.32796         0.57337
C         26.89760        55.02607         0.76832
C         26.87120        56.44046         0.90720
C         29.22405        13.01786        -1.30348
C         30.53890        15.06611        -0.83611
C         29.32527        14.34251        -0.83980
C         30.57160        16.39074        -0.36272
C         29.45753        16.86025         0.55594
C         30.55061        19.14624         0.47591
C         29.43582        18.35835         0.71812
C         30.59127        20.51022         0.91502
C         29.43907        21.15608         1.43591
C         30.67951        23.32459         1.68941
C         29.45438        22.56263         1.75136
C         30.72877        24.74285         2.12284
C         29.44167        25.38234         2.57041
C         30.75513        27.64429         2.51626
C         29.42054        26.94929         2.67662
C         30.75525        29.02854         1.94258
C         29.54271        29.83976         2.12431
C         30.74689        31.95616         1.54634
C         29.68305        31.23696         2.09489
C         30.64170        33.22361         0.71800
C         29.33959        34.05163         0.73951
C         30.64803        36.10918         0.11300
C         29.38109        35.39542         0.27263
C         30.68468        37.47326        -0.21895
C         29.42783        38.24080        -0.36745
C         30.69745        40.40472        -0.68027
C         29.45131        39.59751        -0.96481
C         30.80097        41.57167        -1.66344
C         29.51130        42.37742        -1.65134
C         30.73467        44.60288        -1.23238
C         29.53668        43.86935        -1.71360
C         30.65657        45.88680        -0.76109
C         29.39734        46.62783        -0.71630
C         30.62847        48.71130        -0.19916
C         29.38632        47.98954        -0.36069
C         30.58572        50.14750        -0.05164
C         29.40193        50.87035        -0.12574
C         29.35367        52.25273         0.16345
C         31.65774        17.22513        -0.63641
C         32.79655        19.39582        -0.53059
C         31.70345        18.58769        -0.23454
C         32.91072        20.74232        -0.05962
C         31.90984        21.21778         0.97488
C         32.97529        23.53182         0.83340
C         31.78949        22.71560         1.12342
C         33.23614        24.67841         1.78331
C         31.93674        25.41787         2.11902
C         33.35177        27.59150         2.11494
C         32.05159        26.86231         2.44497
C         33.35261        29.06631         1.83254
C         32.02900        29.75431         1.68553
C         33.30634        32.00322         1.42760
C         32.03605        31.25684         1.64715
C         33.20555        33.35817         0.80843
C         31.94556        34.02758         0.68540
C         33.10541        36.04766        -0.13519
C         31.89727        35.37992         0.24216
C         33.14908        37.42461        -0.43572
C         31.92321        38.17765        -0.44483
C         33.20489        40.26051        -0.78795
C         31.95703        39.56494        -0.69251
C         33.25466        41.66671        -0.98617
C         32.05567        42.39187        -1.42755
C         33.24124        44.55956        -0.72598
C         32.03268        43.89396        -1.27128
C         33.14884        45.86525        -0.28449
C         31.82109        46.51659        -0.02028
C         31.82682        48.01498        -0.14657
C         34.00265        21.50777        -0.36886
C         35.45491        23.48682         0.30164
C         34.14438        22.89149         0.11277
C         35.58360        24.80015         0.75851
C         34.42297        25.51574         1.31767
C         35.84939        27.58276         1.61876
C         34.52286        26.83785         1.61364
C         35.77709        29.01496         1.12096
C         34.43729        29.71450         0.97925
C         35.72523        31.84571         0.60871
C         34.62071        31.20501         1.40890
C         35.64256        33.19589         0.20905
C         34.38936        33.90951         0.26946
C         35.64464        35.96324        -0.67101
C         34.30254        35.22932        -0.34459
C         35.63721        37.41660        -0.62385
C         34.40955        38.11581        -0.61346
C         35.68256        40.24876        -0.67581
C         34.43148        39.53813        -0.68263
C         35.68115        41.66450        -0.68447
C         34.47769        42.39607        -0.82948
C         34.45471        43.81622        -0.72189
C         36.81429        25.47354         0.60587
C         38.13143        27.53672         0.65290
C         36.97431        26.84507         0.92502
C         38.26400        28.98301         1.06776
C         36.93305        29.69554         0.88659
C         38.11250        31.74460         0.07688
C         36.91782        31.10627         0.49701
C         38.09745        33.12623        -0.20920
C         36.86277        33.85338        -0.19704
C         38.12585        35.95699        -0.54997
C         36.89239        35.24155        -0.44648
C         38.10817        37.36288        -0.63040
C         36.89275        38.10738        -0.60290
C         36.89346        39.51828        -0.61375
C         39.41462        29.68405         0.40048
C         40.55315        31.70002        -0.42314
C         39.36061        30.99361         0.01152
C         40.54440        33.04263        -0.62726
C         39.32917        33.82129        -0.49611
C         39.34154        35.20398        -0.60581
O         34.81835        35.34137        -1.70656
O         21.38056        20.78075         3.60355
O         25.58610        26.90947         0.54112
O         22.69608        33.04925         1.22651
O         17.57407        42.29016        -2.90967
O         27.28161        38.30210        -2.54040
O         24.24596        15.71440         3.07688
O         26.77871        26.23267         3.48122
O         16.77347        18.71768         3.80875
O         23.55494        44.73822         0.90790
O         17.34701        39.80997        -3.14108
O         29.44226        26.09977         3.84355
O         21.26391        43.39445         0.75304
O         24.68386        46.29818        -2.03634
O         22.12158        50.99546         2.25982
O         13.74882        25.20972         2.37410
O         14.18796        40.00132         0.66191
O         33.71913        28.60029         3.14789
O         33.17772        23.83833        -0.57052
O         12.33975        25.65070        -0.77684
O         28.60739        31.94390         2.60881
O         16.81873        29.71400        -2.06049
O         16.99197        25.18927        -0.69650
O         28.83238        44.45728        -2.86251
O         27.79173        29.25788         0.42076
O         24.68731        50.96234        -1.39048
O         12.77752        29.33299         1.70232
O         20.59933        26.26418        -0.72623
O         22.68603        22.52357         0.50612
O         26.75112        17.93631         3.08270
O         25.77758        15.23219        -1.17160
O         17.48453        37.30482        -2.95094
O         18.64237        31.87175        -2.43538
O         32.75509        31.90946         2.79690
O         20.60647        14.69462         3.13575
O         24.01644        18.34437         3.68118
O         18.08895        18.74834         0.41645
O         20.51770        53.48593         2.58960
O         22.11312        12.50122         2.03257
O         18.76995        25.44482         2.47101
O         18.52695        27.46929        -1.54055
O         24.23131        11.84016         0.79878
O         22.77928        35.37622        -2.56879
O         26.63214        43.85403         0.12808
O         18.69837        35.55815         0.16311
O         32.31124        43.27256        -2.58003
O         19.74909        11.59927         1.43410
O         23.22878        41.07686        -3.13648
O         31.31732        29.13627         0.54747
O         13.61779        35.23782        -2.37560
O         26.38684        42.19856        -3.13284
O         31.55400        27.39953         3.71008
O         28.54291        38.29106         0.84314
O         16.04041        48.04265         1.30594
O         18.10321        14.68649         2.96492
O         19.60004        14.80974        -0.33306
H         18.76032        14.77691        -0.84075
O         23.27695         7.70634        -1.30993
H         22.55522         7.10441        -1.03226
O         21.20408        29.61544         2.02504
H         21.73309        30.19825         2.61070
O         25.69192        31.18073        -0.93970
H         26.30321        30.41208        -0.92767
O         25.23169        36.52947         1.22389
H         25.19575        35.71559         1.77014
O         29.78478        16.30481         1.87594
H         29.65047        17.02112         2.54947
O         30.93157        40.99028        -2.97774
H         31.18869        41.71494        -3.59008
O         23.58048        10.06219        -4.08903
H         24.34127        10.60164        -4.38962
O         14.38770        35.35807         0.86607
H         15.05047        36.07135         1.07031
O         27.87156        48.76946         1.33005
H         27.01954        48.31681         1.53810
O         21.08835        36.34762         0.33835
H         20.23451        36.32510         0.83391
O         25.01839        47.79675         1.27176
H         24.30147        47.41653         1.83491
O          7.10970        31.16205         2.20306
H          7.07364        32.13289         2.33955
O         10.63552        23.77423        -0.87875
H         11.14226        24.39860        -1.45399
O         38.58545        28.96955         2.49471
H         37.83151        28.50864         2.94900
O         30.59915        32.66903        -0.66264
H         30.60101        33.42288        -1.29169
O         24.62817        55.25602         2.74169
H         24.53948        54.39854         3.20794
O         14.26720        48.52055        -1.95050
H         14.85010        48.02410        -2.56064
O         21.58445        28.63448        -1.46032
H         21.13476        27.92413        -1.97167
O         30.55207        40.97862         0.64808
H         30.24897        40.27039         1.25626
O         24.41675        31.64006         2.48907
H         23.90771        32.48464         2.54403
O         26.47613        17.89081        -0.55636
H         26.25647        17.27085        -1.28961
O          8.02184        26.99373        -1.30512
H          8.15732        26.03845        -1.48063
O         34.02249        29.64876        -0.40078
H         33.05726        29.47125        -0.45854
O         29.06581        18.67556         2.99778
H         28.31807        18.54269         3.63788
O         20.70373        36.71977        -3.26817
H         20.57341        37.49674        -3.85287
O         31.54696        46.24853         1.41590
H         30.72907        46.73795         1.65213
O         19.27280        46.00557         1.76017
H         20.10416        46.28324         2.20459
O         32.51766        20.79061         2.25796
H         31.85886        20.94710         2.96854
O          8.40043        36.08921         1.80814
H          9.19269        36.62654         2.02597
O         22.17484        47.61387         2.00714
H         22.06957        48.49644         2.42889
O         35.14270        31.17116         2.75728
H         34.38135        31.31883         3.36904
O         33.67505        24.06655         3.03052
H         33.77721        24.77338         3.70262
O         28.20311        50.12493        -2.06051
H         28.17111        51.04119        -2.40558
O         20.68931        40.37222        -3.64311
H         21.55252        40.78011        -3.90151
O         24.32981        56.14759        -0.79027
H         24.31962        57.01817        -1.24023
O          9.63113        29.29939        -1.66023
H          9.16011        28.46177        -1.89111
O         25.27808        48.67082        -2.27955
H         24.85117        49.52224        -2.53095
O         22.41652        32.89769        -2.37898
H         22.69227        33.59089        -3.02416
O         15.46337        37.78221         0.96122
H         15.07427        38.48671         1.53484
O         36.23233        27.65225         3.03567
H         35.51409        28.16154         3.48910
O         16.74688        33.37726        -3.12647
H         17.21338        32.55245        -3.40757
O         14.36820        17.79904         4.34191
H         15.27090        17.88184         4.73119
H          5.07369        30.99184         0.01138
H          5.08311        33.41637        -0.45475
H          7.46874        26.79944         0.71512
H          6.31962        28.88171         0.87697
H          6.22040        35.61736        -0.11577
H          7.47802        37.81069        -0.36422
H          9.88867        22.48043         1.47499
H          8.60147        24.68905         0.68476
H          8.68880        39.86383        -0.86112
H          9.88051        41.99826        -1.02641
H         12.29842        18.40827         2.63221
H         11.11305        20.41419         2.04941
H         11.10020        44.20235        -1.07255
H         12.35609        46.35889        -0.92153
H         14.73145        14.55188         0.70712
H         13.53813        16.40343         1.85471
H         13.52942        48.31430        -0.03788
H         14.89216        50.66161        -0.34314
H         17.06942        10.75973        -1.38404
H         15.93003        12.72672        -0.43957
H         16.09893        52.71754         0.24429
H         17.28662        54.78829         0.63778
H         19.26926         7.02304        -3.66071
H         18.15733         8.88528        -2.46113
H         18.50297        56.95402         0.85861
H         19.71471        59.06633         1.07738
H         22.44607         4.36356        -6.08998
H         20.36985         5.33797        -5.12154
H         23.11293        62.45889         1.10325
H         20.95508        61.22604         1.15714
H         24.67865         5.30768        -5.51615
H         26.07662         6.89690        -4.16163
H         26.54610        59.13171         1.07193
H         25.27765        61.23970         1.01539
H         27.41927         8.71777        -3.13932
H         28.75374        10.48738        -2.26125
H         29.06410        54.88208         0.60278
H         27.82675        56.98575         0.95502
H         30.14444        12.48723        -1.58925
H         31.43604        14.62701        -1.29878
H         31.52121        50.67087         0.20032
H         30.29412        52.78827         0.36652
H         32.50148        16.82337        -1.21950
H         33.62634        18.97927        -1.12250
H         34.04994        46.37575         0.08939
H         32.77267        48.56077        -0.01027
H         34.79022        21.10232        -1.02339
H         36.34910        22.92395        -0.00433
H         36.63487        42.20443        -0.59428
H         35.39081        44.33528        -0.46646
H         37.65436        24.93797         0.13775
H         38.99368        27.01564         0.20832
H         39.06061        37.90825        -0.70180
H         37.85047        40.06000        -0.59750
H         40.37780        29.15088         0.36941
H         41.48756        31.12820        -0.52232
H         41.47037        33.56903        -0.90185
H         40.29218        35.73491        -0.76116
