         404
 CSIRO Nanostructure Databank - Neutral Graphene Oxide Data Set
C          1.20474         3.30726        -0.32688
C          0.01466         4.01666        -0.44629
C          1.20926         6.14309        -0.33932
C          0.00658         5.41370        -0.45632
C          1.20742         7.62391        -0.39347
C         -0.00487         8.36009        -0.41857
C          1.17239        10.50623        -0.35532
C         -0.01952         9.74605        -0.43859
C          1.17866        11.95792        -0.31824
C         -0.01133        12.73008        -0.57992
C          1.14303        14.87754        -0.28233
C         -0.01352        14.10179        -0.62468
C          1.18011        16.28221        -0.25718
C         -0.00251        17.05887        -0.57019
C          1.11753        19.14611         0.10718
C         -0.04158        18.40232        -0.42018
C          1.14309        20.67964         0.10500
C          0.05918        21.42875        -0.55542
C          1.26988        23.53124        -0.30784
C          0.16662        22.75389        -0.82718
C          1.23288        24.97556        -0.29260
C          0.19430        25.74376        -0.89395
C          1.16784        27.84383        -0.08906
C          0.16965        27.12290        -0.80466
C          1.14796        29.30580         0.05888
C         -0.02371        30.04999        -0.19082
C          1.14709        32.15114         0.19990
C         -0.04125        31.43106        -0.04828
C          1.17621        33.59903         0.31115
C         -0.03321        34.38465         0.30298
C          1.17911        36.50815         0.63668
C         -0.04026        35.74770         0.38001
C          1.24291        37.96995         0.38610
C          3.65504         3.18171        -0.18603
C          2.44156         3.97828        -0.15776
C          3.68081         6.15999        -0.21462
C          2.41090         5.41325        -0.14731
C          3.69985         7.69079        -0.44846
C          2.40384         8.37512        -0.37813
C          3.64377        10.52200        -0.13180
C          2.40472         9.79759        -0.27783
C          3.62407        11.93894         0.01296
C          2.37248        12.64156        -0.05580
C          3.61018        14.87509         0.37943
C          2.31905        14.10815         0.16524
C          3.63393        16.32456         0.12185
C          2.41222        17.01571        -0.00433
C          3.62209        19.18181         0.16205
C          2.41688        18.45011         0.09281
C          3.64091        20.63234         0.34107
C          2.44585        21.36856         0.26324
C          3.27288        23.59397         1.04060
C          2.34318        22.82453         0.30133
C          3.30100        24.97760         1.02993
C          2.26143        25.70822         0.37858
C          3.17097        27.86959         1.39743
C          2.22414        27.12750         0.47679
C          3.51597        29.29462         0.95046
C          2.32149        30.00554         0.43508
C          3.64077        32.08295         0.31112
C          2.35984        31.41790         0.36268
C          3.63868        33.50616         0.13419
C          2.42067        34.24281         0.30431
C          3.65082        36.41360        -0.00734
C          2.49616        35.70399         0.50640
C          3.65803        37.89082        -0.31706
C          2.38374        38.59978         0.06898
C          6.21478         3.23785         0.11109
C          4.87963         3.59681         0.36640
C          6.13440         6.27048         0.26005
C          4.87489         5.68094         0.42621
C          6.14505         7.69394         0.02120
C          4.93696         8.40239        -0.12566
C          6.11240        10.55205        -0.02875
C          4.89443         9.83167        -0.06128
C          6.08197        11.96914        -0.04786
C          4.86436        12.64728         0.08101
C          6.15845        14.87820         0.17552
C          4.89208        14.10572         0.35996
C          6.11404        16.34323        -0.00367
C          4.87190        17.03898         0.04260
C          6.10174        19.16078        -0.15497
C          4.86561        18.46844         0.01217
C          6.14213        20.59157        -0.05896
C          4.96502        21.27123         0.40203
C          6.36837        23.29920         0.78159
C          5.19669        22.50619         1.00961
C          6.48242        24.66806         1.18305
C          4.38963        25.70416         1.64212
C          6.41760        27.96187         1.22392
C          4.36760        27.04554         1.73041
C          6.21494        29.20340         0.64649
C          4.90574        29.96051         0.78713
C          6.07121        32.03311        -0.05829
C          4.85722        31.36121         0.27505
C          6.07285        33.47649        -0.19741
C          4.85526        34.18404        -0.12020
C          6.17116        36.41465        -0.20822
C          4.82141        35.64042        -0.34085
C          6.11384        37.81317         0.28170
C          4.90880        38.49951         0.27785
C          8.62201         3.43866         0.50959
C          7.35783         4.06292         0.43347
C          8.55748         6.24538         0.58824
C          7.33106         5.51455         0.48376
C          8.57584         7.68613         0.40149
C          7.39252         8.38894         0.11292
C          8.57866        10.51167        -0.10505
C          7.38171         9.83325        -0.01692
C          8.60132        12.00948         0.07723
C          7.34420        12.68602        -0.49379
C          8.56355        14.87100        -0.29398
C          7.39077        14.17073        -0.21063
C          8.58306        16.32046        -0.21567
C          7.32880        17.03043        -0.17390
C          8.56628        19.15631        -0.40447
C          7.32712        18.45471        -0.26840
C          8.57569        20.57721        -0.49001
C          7.35715        21.29307        -0.21963
C          8.60894        23.45949        -0.18557
C          7.43807        22.70077         0.06253
C          8.65603        24.83683         0.12142
C          7.53624        25.50301         0.76078
C          8.78451        27.74488         0.41113
C          7.59984        27.02288         0.99565
C          8.70362        29.25771         0.15264
C          7.34205        29.90472         0.03175
C          8.44360        32.09844        -0.79501
C          7.27283        31.30290        -0.23542
C          8.54929        33.48180        -0.20664
C          7.32069        34.19824        -0.15731
C          8.56180        36.25436         0.38066
C          7.35913        35.60332         0.04327
C          8.55804        37.66212         0.72294
C          7.33470        38.37926         0.74129
C         11.07022         3.47855         0.88421
C          9.81586         4.15273         0.77431
C         10.93250         6.38355         1.36202
C          9.76793         5.57518         0.84110
C         11.04500         7.74581         0.68797
C          9.84960         8.37016         0.34394
C         11.16563        10.52462        -0.15116
C          9.83881         9.75611        -0.16132
C         11.15276        11.99168        -0.12029
C          9.87249        12.67565        -0.40949
C         11.08839        14.91518        -0.22911
C          9.85015        14.16458        -0.50608
C         11.04855        16.27942        -0.13389
C          9.79710        17.01520        -0.24568
C         11.01444        19.17841        -0.47077
C          9.80424        18.45359        -0.35157
C         10.99535        20.55463        -0.79128
C          9.78002        21.27199        -0.74297
C         11.11457        23.35923        -0.49199
C          9.75133        22.78508        -0.93936
C         11.10308        24.86993        -0.48446
C          9.90790        25.55592        -0.16553
C         11.10990        27.65622        -0.43921
C          9.92499        26.97537        -0.15359
C         11.12525        29.08599        -0.89582
C          9.79210        29.82935        -0.75371
C         11.03322        32.06637        -0.62834
C          9.76830        31.33154        -0.87246
C         11.01955        33.39837        -0.19067
C          9.76831        34.13210        -0.03021
C         10.98514        36.17299         0.71868
C          9.78494        35.52071         0.36420
C         11.00429        37.56297         1.05830
C          9.78013        38.27856         1.06095
C         13.52008         3.50108         1.05215
C         12.28041         4.15718         1.11347
C         13.55240         6.36466         1.30057
C         12.25431         5.61207         1.41840
C         13.54418         7.80796         0.98948
C         12.30768         8.45687         0.67687
C         13.56067        10.58016         0.43962
C         12.35100         9.83385         0.35340
C         13.55550        11.97457         0.19622
C         12.32977        12.69131         0.02815
C         13.58056        14.91853        -0.10307
C         12.31446        14.18539         0.26708
C         13.59260        16.29455        -0.04803
C         12.30867        17.02600         0.10749
C         13.56064        19.14526        -0.56869
C         12.29816        18.51133        -0.14224
C         13.50317        20.38550        -1.22739
C         12.25279        21.20658        -1.27121
C         13.53545        23.53118        -1.33202
C         12.27708        22.73477        -1.27349
C         13.57315        24.87993        -0.91393
C         12.33336        25.56421        -0.60670
C         13.58784        27.71974        -0.67153
C         12.34393        26.97849        -0.57193
C         13.59571        29.12808        -0.50461
C         12.30468        29.82386        -0.31209
C         13.55325        32.02704        -0.30030
C         12.27091        31.31372        -0.32421
C         13.49296        33.40866        -0.03691
C         12.24943        34.04598         0.16402
C         13.52213        36.12880         1.03930
C         12.22001        35.38556         0.77927
C         13.48828        37.59858         1.20680
C         12.24172        38.23779         1.29880
C         16.00245         3.49516         1.00212
C         14.77250         4.19410         1.06580
C         16.01682         6.32669         1.00434
C         14.80028         5.61877         1.07155
C         16.03103         7.76859         0.99814
C         14.77787         8.49267         0.91475
C         16.02068        10.64263         0.73802
C         14.80168         9.90567         0.68735
C         16.07601        12.00987         0.39543
C         14.83137        12.65161        -0.03520
C         16.09194        14.89818        -0.10357
C         14.83147        14.17662        -0.27353
C         16.04278        16.31907        -0.13985
C         14.82965        17.03199        -0.16529
C         16.01412        19.16265        -0.71524
C         14.80498        18.45966        -0.43966
C         15.97741        20.40577        -1.38012
C         14.70802        20.85946        -1.78259
C         15.98484        23.55856        -1.66183
C         14.71060        23.01878        -1.90426
C         16.02929        24.91922        -1.27314
C         14.80213        25.60466        -1.01828
C         16.04511        27.75473        -0.97146
C         14.81361        27.03016        -0.86442
C         16.03937        29.17919        -0.71940
C         14.79516        29.86203        -0.50509
C         16.02270        31.98034        -0.23116
C         14.78689        31.30112        -0.35677
C         16.06452        33.44623        -0.16693
C         14.74024        34.19429        -0.01905
C         15.98681        36.18556         0.75769
C         14.78346        35.51955         0.58823
C         15.96794        37.58021         1.18094
C         14.72481        38.26544         1.30233
C         18.48113         3.47508         0.97012
C         17.22987         4.17947         0.98728
C         18.48687         6.32005         0.98628
C         17.24938         5.61182         0.98988
C         18.50246         7.75381         0.99560
C         17.25698         8.45462         1.02060
C         18.58677        10.67648         0.91411
C         17.25272         9.92756         1.10119
C         18.55001        12.07647         0.45086
C         17.30523        12.74619         0.30661
C         18.55927        14.83480        -0.14070
C         17.30455        14.16222         0.01796
C         18.53505        16.26174        -0.52551
C         17.32022        17.05268        -0.17088
C         18.56258        19.19852        -0.91545
C         17.31780        18.52994        -0.45036
C         18.51344        20.55943        -1.30023
C         17.22120        21.18813        -1.67154
C         18.49457        23.47157        -1.59955
C         17.21833        22.75210        -1.84299
C         18.48330        24.90337        -1.55793
C         17.28067        25.63889        -1.35890
C         18.47841        27.84554        -1.50784
C         17.25234        27.06547        -1.27186
C         18.50640        29.29779        -1.03685
C         17.24368        29.90310        -0.59819
C         18.50375        31.96939        -0.02500
C         17.25513        31.28122        -0.25361
C         18.50422        33.36153         0.32909
C         17.28598        34.11211         0.29632
C         18.46584        36.14848         0.98318
C         17.25019        35.47933         0.63132
C         18.43002        37.53643         1.34240
C         17.18592        38.22772         1.41445
C         19.67117         4.15472         0.95974
C         20.93393         6.29631         0.93823
C         19.70769         5.58606         0.96314
C         20.95227         7.67629         0.88518
C         19.75532         8.44693         0.88948
C         20.95713        10.56614         0.30293
C         19.80061         9.87479         0.70584
C         20.96340        11.94472         0.10113
C         19.77864        12.72611         0.15495
C         21.00909        14.91015        -0.23165
C         19.77891        14.15105        -0.11118
C         21.04571        16.24775        -0.47623
C         19.82134        17.01065        -0.76946
C         20.97827        19.22468        -1.09417
C         19.79457        18.50633        -0.85004
C         20.94567        20.59312        -1.31592
C         19.72295        21.29929        -1.41797
C         20.93539        23.48334        -1.33992
C         19.70299        22.75175        -1.50848
C         20.98996        24.83401        -1.45614
C         19.77442        25.60261        -1.73119
C         20.99546        27.88658        -1.29784
C         19.79594        27.14841        -1.67751
C         20.96578        29.16069        -0.77257
C         19.77251        29.91100        -0.60386
C         20.93189        31.93571         0.28682
C         19.73868        31.25020        -0.09436
C         20.92119        33.26402         0.65042
C         19.72018        34.02605         0.65802
C         20.88613        36.14930         1.29947
C         19.70421        35.43957         0.97902
C         20.84862        37.50658         1.61862
C         19.63979        38.19954         1.64808
O         12.29686        17.96314         1.23175
O         15.43817        34.11980        -1.31541
O          9.51376        30.41477        -2.05720
O         18.39150        28.94172        -2.47196
O         14.86998        13.23078        -1.39847
O         19.87849        26.43030        -2.94791
O         17.97139        10.48129         2.24326
O         11.97307        21.99404        -2.49047
O          5.55286        25.08596         2.13511
O         14.62788        21.88618        -2.71707
O         17.26161        21.83878        -2.97587
O         12.98542         5.97935         2.63776
O         12.09707        30.47389         0.96165
O          0.76979        19.91648         1.30931
O         17.48722        18.00707         0.92822
O          2.76696        14.49890         1.51757
O          8.73517        29.96807         1.38896
O         10.60732         9.95384        -1.39928
O         19.02184        16.46195        -1.89427
O          5.57840        36.13771        -1.50991
O          1.94792        36.12957         1.81404
O          5.53135        27.63210         2.25088
O         12.85891        35.39542         2.12345
O          4.73944         4.64526         1.33382
O          9.86026        13.30804        -1.73625
O          5.72079        14.43168         1.53703
O          8.70868        27.42953         1.85159
O          3.88750         6.74755        -1.54718
O          4.20193        22.96655         1.87633
O          4.19659        29.95276         2.07295
O         11.45718        28.95282        -2.31017
H         10.85613        29.55473        -2.81255
O         10.55202         6.68633         2.74158
H         11.39234         6.69278         3.26180
O          3.71688        38.04361        -1.77895
H          4.50221        37.52336        -2.08311
O          2.42102        28.05869         2.63878
H          2.96419        28.65850         3.19839
O         12.24992        14.27272         1.73767
H         12.19801        15.22158         1.98655
O          8.61649        12.23294         1.51573
H          7.73736        11.99083         1.87847
O         11.35085        22.93665         0.88235
H         10.72761        23.42061         1.46506
O          9.52934        23.08306        -2.33566
H         10.25711        22.64923        -2.84397
O          7.32240        12.52645        -1.93578
H          8.20600        12.81884        -2.27741
O          8.06023        32.41587        -2.17730
H          8.24013        31.61365        -2.71852
H          1.19215         2.20860        -0.35962
H         -0.93311         3.47210        -0.56017
H         -0.95141         5.93149        -0.59369
H         -0.96868         7.83428        -0.43168
H         -0.99143        10.25647        -0.47919
H         -0.94319        12.20080        -0.82125
H         -0.94693        14.61101        -0.90104
H         -0.91003        16.53757        -0.90350
H         -0.98460        18.93936        -0.59018
H         -0.85783        20.89404        -0.83816
H         -0.65928        23.26352        -1.34209
H         -0.61373        25.23909        -1.44142
H         -0.65188        27.67019        -1.28783
H         -0.95632        29.52782        -0.44429
H         -0.99236        31.96233        -0.18530
H         -0.99167        33.86957         0.15041
H         -0.97195        36.30325         0.19620
H          0.31676        38.54711         0.53652
H          3.60159         2.20913        -0.69841
H          2.37751        39.69095        -0.07486
H          6.41618         2.28158        -0.39472
H          4.87051        39.52736         0.66789
H          8.67754         2.34405         0.41605
H          7.34180        39.43341         1.05566
H         11.09797         2.39142         0.71499
H          9.78753        39.34767         1.32080
H         13.53181         2.40916         0.91394
H         12.21335        39.32132         1.48987
H         15.99703         2.39503         0.98981
H         14.73646        39.34688         1.50672
H         18.46906         2.37547         0.96727
H         17.18721        39.28914         1.70503
H         20.62325         3.60435         0.94570
H         21.87945         5.73510         0.94150
H         21.92332         8.18850         0.85064
H         21.89747        10.01831         0.15199
H         21.91310        12.42234        -0.17407
H         21.96003        14.39170        -0.04417
H         22.01021        16.77425        -0.43778
H         21.94707        18.70705        -1.09085
H         21.90082        21.11228        -1.46214
H         21.86917        22.93912        -1.15160
H         21.95700        25.35303        -1.41835
H         21.97081        27.42060        -1.49507
H         21.92773        29.62523        -0.51417
H         21.89130        31.40136         0.27775
H         21.87310        33.73945         0.92252
H         21.85672        35.63573         1.30059
H         21.78379        38.03116         1.85941
H         19.61869        39.26527         1.91700
