         490
 CSIRO Nanostructure Databank - Neutral Graphene Oxide Data Set
C         37.78555        50.52668         1.13534
C         36.72531        51.32550         1.56573
C         37.98279        53.29794         0.97131
C         36.83408        52.71727         1.49847
C         40.27368        48.96545         0.99287
C         40.08652        50.20084         0.15016
C         38.96588        51.09588         0.63868
C         40.24508        53.10903        -0.08218
C         39.05749        52.50313         0.51403
C         40.28859        54.47326        -0.42290
C         42.61556        48.76050         0.29615
C         41.43889        48.27653         0.97902
C         42.60268        50.14010        -0.16634
C         41.40160        50.91379        -0.06128
C         42.58360        52.93177        -0.84892
C         41.40841        52.31089        -0.33099
C         42.63068        54.31901        -1.12116
C         41.43917        55.06608        -0.92354
C         44.97853        45.90317         0.69602
C         43.82533        46.63165         0.69267
C         45.00974        48.53497        -0.31707
C         43.79306        47.98506         0.20884
C         44.96957        49.85250        -1.04785
C         43.77258        50.70538        -0.68921
C         45.04158        52.77825        -1.54747
C         43.73580        52.08668        -1.17629
C         45.09231        54.25273        -1.49760
C         43.89312        54.97121        -1.44275
C         45.10104        57.10359        -1.63099
C         43.94324        56.42081        -1.56062
C         47.45611        44.34074         0.65422
C         47.41465        45.72048         0.29830
C         46.22558        46.46751         0.26494
C         47.48027        48.51011        -0.45907
C         46.21490        47.83312        -0.22520
C         47.48490        49.93421        -0.73711
C         46.28840        50.60258        -0.98352
C         47.61074        52.78049        -1.27554
C         46.31673        51.99599        -1.44164
C         47.55197        54.25470        -1.16135
C         46.36840        54.93072        -1.40872
C         47.41514        57.04735        -0.58519
C         46.44789        56.43580        -1.61580
C         47.50632        58.54419        -0.66523
C         49.91317        44.27107         0.58056
C         48.63370        43.63074         0.72046
C         49.93833        45.65188         0.27862
C         48.68454        46.31649        -0.26030
C         49.91727        48.53934        -0.21593
C         48.68833        47.83024        -0.25383
C         49.95807        49.92614        -0.43453
C         48.75043        50.65434        -0.70434
C         50.01077        52.79825        -0.62418
C         48.79104        52.05593        -0.80536
C         50.01223        54.25000        -0.68657
C         48.79022        54.96579        -0.85378
C         49.96886        57.09999        -0.50713
C         48.76870        56.36746        -0.68611
C         49.95162        58.53304        -0.43775
C         48.67375        59.20993        -0.55355
C         52.40287        41.51676         1.28782
C         51.19851        42.17374         1.11190
C         52.38690        44.26173         0.70670
C         51.14860        43.56069         0.80866
C         52.36860        45.68790         0.54315
C         51.15532        46.35891         0.31748
C         52.44109        48.46325        -0.21889
C         51.15335        47.87117         0.35492
C         52.40942        49.97198        -0.12689
C         51.22111        50.65583        -0.35027
C         52.47385        52.84139        -0.50579
C         51.20390        52.09775        -0.44259
C         52.47926        54.30072        -0.38844
C         51.22846        54.97912        -0.49399
C         52.44566        57.12655        -0.32493
C         51.21942        56.40639        -0.44569
C         52.42129        58.55717        -0.26742
C         51.16086        59.25049        -0.30747
C         52.34395        61.38022        -0.08896
C         51.17724        60.68256        -0.20766
C         54.98025        39.97883         1.13734
C         54.97842        41.47613         1.35888
C         53.64387        42.17995         1.10267
C         54.87773        44.30195         0.43095
C         53.62032        43.54343         0.80843
C         54.83545        45.69685         1.00436
C         53.60100        46.46072         0.66842
C         54.97016        48.51774         0.35797
C         53.64747        47.79850         0.41312
C         54.87078        50.00169         0.69048
C         53.61590        50.70893         0.28879
C         54.94206        52.89019         0.25041
C         53.75285        52.12173        -0.13601
C         54.93597        54.28681         0.06432
C         53.69877        54.98888        -0.20845
C         54.91032        57.15337        -0.12574
C         53.69275        56.42914        -0.22030
C         54.89277        58.58774        -0.15304
C         53.63714        59.28587        -0.17265
C         54.82406        61.44358         0.04508
C         53.61849        60.72003        -0.07704
C         54.85400        62.88899         0.12922
C         57.40969        39.98880         0.68108
C         56.12135        39.31827         0.85017
C         57.42708        41.40014         0.65955
C         56.10159        42.10151         0.50639
C         57.37355        44.26922         0.85485
C         56.15951        43.57849         0.73718
C         57.37942        45.68431         0.97142
C         56.13280        46.41494         1.22896
C         57.34929        48.65888         0.93013
C         56.06639        47.93812         1.27859
C         57.36268        50.03637         0.92052
C         56.13323        50.78152         0.78783
C         57.35435        52.95712         0.86062
C         56.11154        52.17343         0.66889
C         57.38665        54.36785         0.42910
C         56.17266        55.03286         0.17861
C         57.37974        57.17463         0.10397
C         56.16418        56.46224         0.03035
C         57.37222        58.61901        -0.02585
C         56.10597        59.31227        -0.12695
C         57.28408        61.46739         0.06895
C         56.08885        60.75077        -0.00998
C         57.29280        62.86288         0.62618
C         55.99877        63.57528         0.35066
C         59.93339        37.18161         0.63684
C         58.71330        37.86316         0.73041
C         59.83477        39.97291         0.01156
C         58.62170        39.25148         0.55454
C         59.89229        41.44218         0.37317
C         58.64191        42.14428         0.64913
C         59.88370        44.29688         0.72965
C         58.64331        43.55361         0.75454
C         59.88962        45.67786         0.70146
C         58.60506        46.41093         0.63063
C         59.82205        48.68365         0.45697
C         58.57151        47.91941         0.57462
C         59.86660        50.04509         0.57541
C         58.68474        50.72656         1.21756
C         59.91995        52.92556         0.70240
C         58.66032        52.23338         1.04549
C         59.88257        54.35337         0.54019
C         58.64075        55.05039         0.41553
C         59.85529        57.18447         0.19885
C         58.63543        56.48065         0.23246
C         59.87429        58.68778         0.30254
C         58.55846        59.33511        -0.01600
C         59.82005        61.52835         0.05212
C         58.55764        60.80231        -0.36057
C         59.80717        62.88055         0.28543
C         58.55523        63.62972         0.29803
C         59.83358        65.68829        -0.04186
C         58.58411        64.98135         0.11096
C         62.56069        35.83949         1.26079
C         62.50084        37.13141         0.46496
C         61.15807        37.87302         0.50196
C         62.34807        40.00004         0.07917
C         61.13929        39.26337         0.30731
C         62.24985        41.43614        -0.38961
C         61.07151        42.11854         0.27479
C         62.43265        44.27510         0.43921
C         61.17866        43.50341         0.87930
C         62.42613        45.77033         0.34422
C         61.13768        46.47937         0.61382
C         62.16333        48.64591        -0.46696
C         61.09499        47.94477         0.34132
C         62.28487        50.10067        -0.02437
C         61.11174        50.77062         0.40941
C         62.42614        52.90866         0.67517
C         61.10708        52.19557         0.55487
C         62.35462        54.37165         0.32063
C         61.12299        55.06296         0.36095
C         62.32791        57.20662         0.10192
C         61.10018        56.49500         0.21126
C         62.33662        58.64142        -0.14387
C         61.03330        59.34483        -0.46109
C         62.27310        61.50858        -0.16617
C         61.08118        60.82433        -0.12270
C         62.33061        62.93728         0.06634
C         61.08754        63.62439         0.59596
C         62.30234        65.81274         0.18382
C         61.03291        65.07772         0.17398
C         62.32031        67.21302         0.34326
C         65.04110        35.96751         1.40978
C         63.72777        35.29501         1.63901
C         64.99173        37.40800         0.98973
C         63.61625        38.08427         0.94696
C         64.75788        40.01162        -0.42627
C         63.57062        39.37378         0.15213
C         64.77640        41.48260        -0.49504
C         63.56587        42.17499        -0.27981
C         64.75336        44.31596        -0.48486
C         63.57953        43.56681        -0.16157
C         64.69689        45.73525        -0.64591
C         63.53370        46.49434        -0.34007
C         64.59047        48.62954        -1.10808
C         63.46520        47.87924        -0.55215
C         64.62868        50.15191        -0.92371
C         63.48663        50.81643        -0.25897
C         64.78579        52.90030        -0.20547
C         63.58362        52.19459         0.02479
C         64.80510        54.34545        -0.08392
C         63.57312        55.05996         0.10517
C         64.79237        57.20153        -0.04644
C         63.56333        56.49691         0.06117
C         64.79397        58.68787         0.20995
C         63.50505        59.33653        -0.21546
C         64.79258        61.50411        -0.47216
C         63.49020        60.77056        -0.67654
C         64.74417        62.98306        -0.53543
C         63.49059        63.65791        -0.11497
C         64.75644        65.80940         0.21726
C         63.52240        65.10794         0.08701
C         64.74962        67.20795         0.49822
C         63.51482        67.89398         0.50989
C         67.04536        33.15882        -0.14097
C         66.02053        33.85088         0.37848
C         67.47031        35.87892         0.60013
C         66.28871        35.10075         1.18255
C         67.51414        37.40186         0.69015
C         66.16408        38.00438         0.36446
C         67.32920        40.09934        -0.43733
C         66.10221        39.27239        -0.34586
C         67.26994        41.49329        -0.58581
C         65.99894        42.19679        -0.61212
C         67.20477        44.33580        -0.97237
C         65.97699        43.60843        -0.70693
C         67.15442        45.69304        -1.25221
C         65.86699        46.40373        -1.24631
C         67.16024        48.64881        -1.43901
C         65.86739        47.90570        -1.41100
C         67.16013        50.11520        -1.29179
C         65.93877        50.83469        -0.92269
C         67.31272        52.87693        -0.47196
C         65.97229        52.18560        -0.58582
C         67.24459        54.38983        -0.53047
C         66.00957        55.06823        -0.28801
C         67.23392        57.23575        -0.37060
C         66.00001        56.50887        -0.23401
C         67.21832        58.68094        -0.38510
C         66.02543        59.39002        -0.29210
C         67.27044        61.54852        -0.78072
C         65.98946        60.82014        -0.45807
C         67.30859        62.98946        -0.34308
C         66.04830        63.75397        -0.44789
C         67.20870        65.77581         0.41247
C         66.02422        65.13689         0.08789
C         67.20451        67.13981         0.87162
C         65.98959        67.87870         0.82862
C         67.18117        69.84915         1.61016
C         66.01541        69.25136         1.16953
C         69.54100        31.47121         0.64160
C         69.64102        32.89899         0.26943
C         68.41824        33.71389        -0.10622
C         69.85562        35.80374        -0.30612
C         68.51377        35.18877         0.07818
C         69.87709        37.30284        -0.09488
C         68.54666        37.94564        -0.32219
C         69.76131        40.16221        -0.18053
C         68.57395        39.44645        -0.27902
C         69.73966        41.56848        -0.42036
C         68.49392        42.22832        -0.63521
C         69.68352        44.33786        -0.97674
C         68.47281        43.63310        -0.89343
C         69.67774        45.75082        -1.41864
C         68.34358        46.45574        -1.65168
C         69.59610        48.61159        -2.12916
C         68.31771        47.94274        -1.65144
C         69.55215        50.14663        -1.99054
C         68.33546        50.81618        -1.48981
C         69.67595        52.99620        -1.22309
C         68.32846        52.33751        -1.48119
C         69.69271        54.38230        -0.92238
C         68.43446        55.10025        -0.69148
C         69.68097        57.26190        -0.60613
C         68.44161        56.53735        -0.58295
C         69.71167        58.63957        -0.43392
C         68.47859        59.40478        -0.45940
C         69.81807        61.52430        -0.58187
C         68.51372        60.77874        -0.48835
C         69.73398        62.89314         0.07437
C         68.47958        63.61152         0.01498
C         69.65873        65.62894         1.00770
C         68.54008        65.12693         0.11709
C         69.61350        66.94617         1.52423
C         68.39860        67.75083         1.36868
C         69.54818        69.74471         2.40335
C         68.37057        69.10454         1.75799
C         69.75759        71.19532         2.30628
C         71.88027        31.49683         1.35470
C         70.61368        30.81893         1.14354
C         72.00832        32.83095         1.17769
C         70.83917        33.65676         0.79609
C         72.23676        35.87805         0.56200
C         70.95405        35.12900         0.50934
C         72.25349        37.21888         0.39133
C         71.02876        37.98286         0.14095
C         72.24486        40.22639        -0.10957
C         71.01333        39.49401         0.35353
C         72.20834        41.53036        -0.45703
C         70.97064        42.29518        -0.53163
C         72.14926        44.45829        -1.04017
C         70.93764        43.67601        -0.81214
C         72.13746        45.79971        -1.18180
C         70.86362        46.59126        -0.99135
C         72.03987        48.73934        -1.52994
C         70.86559        47.99327        -1.55593
C         72.08890        50.10642        -1.78279
C         70.86445        50.89867        -1.91389
C         72.10394        53.00007        -1.32545
C         70.88281        52.31323        -1.44560
C         72.11900        54.36702        -1.07887
C         70.92424        55.07185        -0.89411
C         72.08275        57.16038        -0.01504
C         70.99322        56.57744        -0.88767
C         72.08435        58.48376         0.24262
C         70.96062        59.32441        -0.16081
C         72.18081        61.43634         0.26018
C         71.00351        60.71148        -0.11434
C         72.12653        62.77010         0.55888
C         70.87898        63.49547         0.57207
C         71.90854        65.35659         1.88625
C         70.81969        64.84054         1.15566
C         71.87976        66.65639         2.37201
C         70.75481        67.47335         2.18339
C         72.06545        69.58783         2.79829
C         70.78257        68.88160         2.66303
C         72.11678        70.94376         2.87633
C         70.95462        71.75448         2.62560
O         53.91034        50.41377         1.71009
O         70.48855        34.66407         1.82316
O         57.97411        52.83994         2.20674
O         65.29085        39.28511        -1.59231
O         69.15134        45.89701        -2.75026
O         65.35264        63.58560        -1.73809
O         64.23485        49.54395        -2.21614
O         67.26348        61.69664        -2.34712
O         44.17715        52.24253        -2.60808
O         53.38922        52.30794        -1.54209
O         65.63719        47.04135        -2.57310
O         61.40673        47.46504         1.69346
O         65.32653        36.98300         2.44393
O         58.38948        47.12089        -0.68063
O         62.92066        45.10480         1.56409
O         55.34273        45.80999         2.35573
O         69.30902        33.17130        -1.12860
O         69.82451        69.17744         3.73248
O         47.17809        52.26704        -2.59800
O         70.10112        50.79930        -3.20378
O         52.54205        48.14969        -1.64154
H         51.76309        48.53778        -2.09631
O         61.22628        63.62333         2.06096
H         60.35481        63.87683         2.43357
O         68.89373        65.57710        -1.23692
H         69.68990        65.07484        -1.51396
O         58.55654        60.84476        -1.84126
H         59.29251        60.24452        -2.13379
O         51.16184        48.22695         1.76949
H         50.36734        47.83605         2.18881
O         60.16068        58.99055         1.71351
H         59.43059        58.62157         2.25410
O         67.93530        37.82059         2.01495
H         67.18039        37.61995         2.61844
O         66.68396        34.64181         2.50569
H         66.80472        35.44067         3.06344
O         67.15621        60.38318        -2.91418
H         66.18097        60.25932        -3.02307
O         63.31773        60.70290        -2.15204
H         63.43563        61.61535        -2.49803
O         55.69193        41.88502        -0.89808
H         56.50502        41.89327        -1.44763
O         67.83727        52.52772         0.84584
H         67.20910        52.86373         1.51940
O         62.73535        52.88066         2.12737
H         61.92155        53.14984         2.60560
O         48.68112        45.96854        -1.69584
H         48.59514        44.99313        -1.75688
O         57.35771        62.69508         2.10450
H         56.54012        62.22444         2.37526
O         71.35774        56.92699        -2.26937
H         71.33962        57.90595        -2.33773
O         55.75977        48.33030         2.63040
H         55.32501        47.56081         3.06815
O         59.67529        39.92021        -1.46894
H         59.68141        38.97230        -1.72389
O         58.89608        50.48688         2.64324
H         58.33482        51.14108         3.12092
O         46.86710        56.71930         0.72791
H         47.44769        57.12697         1.40406
O         67.91189        52.74221        -2.80827
H         68.54153        52.32753        -3.44111
O         54.82902        44.46734        -1.02027
H         54.92186        43.55910        -1.40026
O         61.96372        41.43617        -1.82160
H         61.13428        40.90826        -1.95397
O         39.66375        49.72711        -1.18175
H         40.40181        49.19541        -1.54947
O         63.26582        38.47815         2.29338
H         63.85536        37.97458         2.90506
O         55.43170        48.41456        -1.01078
H         54.64916        48.29927        -1.59729
O         68.11724        37.53955        -1.65487
H         67.30855        38.04185        -1.89673
O         61.64476        48.68554        -1.83118
H         62.36945        49.05584        -2.39373
O         61.32014        43.25590         2.30625
H         61.79915        44.03506         2.67771
O         64.85162        58.83944         1.68314
H         64.04033        58.42600         2.04949
O         47.05201        56.65772        -2.91834
H         46.52612        56.16867        -3.58507
O         70.67300        46.76299         0.46094
H         71.48851        47.16826         0.82450
O         70.95037        39.67596         1.80898
H         70.16972        39.17301         2.13057
O         69.66003        48.31488        -3.55266
H         70.03267        49.11892        -3.98831
O         55.32143        41.72177         2.74525
H         54.62518        41.32927         3.31104
O         70.13001        35.57992        -1.70395
H         69.45836        36.09401        -2.20704
O         62.77378        36.80022        -0.91918
H         62.06039        36.21295        -1.24378
O         60.79856        59.22478        -1.89153
H         61.59057        59.61964        -2.33290
O         70.04300        61.78930        -2.01394
H         69.15187        61.86804        -2.43878
O         44.79012        49.52440        -2.47243
H         44.67831        50.38850        -2.94231
H         37.67670        49.43430         1.17915
H         35.80989        50.85988         1.95603
H         38.04437        54.39323         0.91622
H         36.00900        53.35341         1.84767
H         39.41727        48.55363         1.54517
H         39.39761        55.10127        -0.28926
H         41.49736        47.33402         1.54109
H         41.40731        56.13753        -1.15690
H         44.94701        44.86786         1.06007
H         42.90144        46.15606         1.04620
H         45.07395        58.19342        -1.77535
H         43.00069        56.98215        -1.61145
H         46.52129        43.80976         0.88132
H         46.56899        59.11526        -0.73217
H         48.58833        42.56337         0.97428
H         48.65211        60.30804        -0.57467
H         52.38575        40.44787         1.54413
H         50.26787        41.60026         1.21997
H         52.29588        62.47366        -0.00496
H         50.23285        61.24167        -0.21429
H         54.05524        39.40393         1.29552
H         53.91946        63.45260         0.00105
H         56.08861        38.22349         0.74809
H         55.95754        64.66976         0.44363
H         59.93100        36.09026         0.76805
H         57.81811        37.28404         0.99820
H         59.78533        66.75806        -0.29148
H         57.65964        65.57322         0.08126
H         61.62636        35.29938         1.48016
H         61.37597        67.77137         0.39894
H         63.74173        34.33627         2.18132
H         63.48067        68.97668         0.68659
H         66.87968        32.21778        -0.68548
H         64.98920        33.47275         0.30932
H         67.15903        70.90713         1.90416
H         65.10169        69.85699         1.11711
H         68.59775        30.94167         0.44510
H         68.93820        71.83384         1.94619
H         72.74337        30.89635         1.67545
H         70.54845        29.74894         1.38666
H         72.96671        33.33076         1.37918
H         73.16355        35.34328         0.81732
H         73.20379        37.76320         0.48838
H         73.21378        39.70673        -0.08155
H         73.15060        42.03087        -0.72350
H         73.10810        43.92746        -1.12675
H         73.08409        46.32484        -1.37458
H         72.98410        48.24984        -1.24644
H         73.05234        50.61686        -1.66047
H         73.05732        52.48539        -1.49881
H         73.07714        54.90405        -1.07936
H         72.92577        56.53021         0.30405
H         72.91979        58.93725         0.79505
H         73.14078        60.90803         0.34637
H         73.05295        63.28535         0.84429
H         72.79844        64.74261         2.07414
H         72.74952        67.03608         2.92458
H         72.99989        69.00903         2.81824
H         73.08396        71.44782         3.01434
H         71.07988        72.84563         2.57916
