         275
 CSIRO Nanostructure Databank - Neutral Graphene Oxide Data Set
C         30.39538        31.62739         1.30625
C         30.37644        32.85653         1.22358
C         30.29377        36.11747         0.47596
C         30.25686        37.23679        -0.03774
C         30.24083        40.53120        -0.56518
C         30.25761        41.76781        -0.51348
C         32.86860        28.92487         1.78334
C         31.69638        29.41546         1.81943
C         32.79176        31.57503         1.33265
C         31.50721        30.67073         0.99427
C         32.76387        33.01830         0.84369
C         31.48290        33.81389         1.13008
C         32.68017        35.89997         0.16184
C         31.43840        35.26020         0.79156
C         32.64965        37.30768        -0.38153
C         31.39472        38.16242        -0.19731
C         32.65163        40.40762        -0.93803
C         31.40141        39.62526        -0.45313
C         32.75153        41.76492        -0.21824
C         31.18353        42.66542         0.18654
C         32.74600        44.56691        -0.20011
C         31.65581        43.98845        -0.25625
C         35.42793        27.26460         0.98307
C         35.38646        28.63496         1.50787
C         34.16951        29.41104         1.74036
C         35.41054        31.65366         1.38161
C         34.12121        30.91251         1.65765
C         35.36700        33.13375         0.98886
C         34.03777        33.79154         0.67543
C         35.17457        35.92075        -0.14947
C         34.01912        35.33991         0.66808
C         35.21231        37.39692        -0.33098
C         33.93603        38.06474        -0.62890
C         35.24974        40.26320        -0.72643
C         33.94568        39.56552        -0.87929
C         35.24861        41.77535        -0.91879
C         34.02876        42.52264        -0.36311
C         35.19968        44.58783         0.48833
C         34.14434        44.07951        -0.47872
C         35.59609        45.99472         0.55570
C         37.65692        27.10452        -0.00567
C         36.39367        26.61912         0.56909
C         37.68439        28.64200         0.13343
C         36.66846        29.34650         1.04895
C         37.78614        31.51308         0.32133
C         36.66425        30.86896         1.09820
C         37.73778        32.95369        -0.08097
C         36.58037        33.79844         0.39773
C         37.72595        35.92944        -0.35107
C         36.44819        35.15264        -0.25353
C         37.65582        37.37532        -0.60795
C         36.43480        38.08653        -0.52753
C         37.72903        40.28620        -0.46189
C         36.42382        39.55838        -0.62383
C         37.75681        41.69117         0.07125
C         36.46202        42.25883         0.58852
C         37.71939        44.36844         1.46866
C         36.41672        43.73142         0.92412
C         37.79717        45.91084         1.60194
C         36.62134        46.52140         0.98497
C         40.25677        24.38034         0.55805
C         39.19205        24.96198         0.33742
C         40.29522        27.07813        -0.17284
C         38.93881        26.33391        -0.12159
C         40.27320        28.58403        -0.30924
C         38.98179        29.35889        -0.15870
C         40.33720        31.58082         0.13871
C         39.09887        30.73821         0.48911
C         40.29415        33.04397        -0.20896
C         38.97351        33.64660        -0.71925
C         40.20719        35.85686        -1.13780
C         39.01134        35.16917        -0.51430
C         40.20434        37.36352        -1.19422
C         38.91766        38.08707        -0.92890
C         40.28635        40.13987        -0.06344
C         38.98250        39.46162        -0.33794
C         40.23858        41.64129         0.12060
C         38.98627        42.12740         0.87771
C         40.36339        44.36603         1.37720
C         39.04484        43.60904         1.34640
C         40.40619        45.82257         1.79743
C         39.09428        46.63070         1.80567
C         40.30412        48.74618         1.28508
C         39.28930        48.06235         1.55304
C         42.90046        24.39220         0.52948
C         41.58152        24.94694         0.81037
C         42.91979        27.13911         0.11009
C         41.56588        26.44654         0.38553
C         42.78756        28.51513        -0.55224
C         41.58379        29.31203        -0.08518
C         42.80882        31.51285        -0.62426
C         41.62230        30.80816        -0.02893
C         42.88842        33.01687        -0.54621
C         41.60125        33.78376        -0.53382
C         42.79747        35.95358        -1.54850
C         41.51779        35.13173        -1.21240
C         42.82384        37.33046        -0.90680
C         41.53624        38.11583        -1.06064
C         42.84904        40.26096        -0.33336
C         41.54932        39.55398        -0.62932
C         42.81299        41.74417        -0.07674
C         41.47894        42.47477        -0.02610
C         42.79224        44.69794         0.39960
C         41.40739        44.00439         0.29398
C         42.85906        45.96011         1.19641
C         41.74328        46.47320         1.80018
C         42.88203        48.86447         0.93812
C         41.66478        48.73215         1.62979
C         43.89823        24.95541         0.06313
C         45.32605        26.95291        -0.76361
C         43.99115        26.21589        -0.74415
C         45.38714        28.48940        -0.86262
C         44.05845        29.22625        -0.92203
C         45.30437        31.48057        -0.56129
C         44.05403        30.74455        -0.96839
C         45.46700        32.93490        -1.01672
C         44.10703        33.65194        -1.16641
C         45.40791        35.89152        -1.25497
C         44.09183        35.13555        -1.36491
C         45.42993        37.40472        -1.28418
C         44.12729        38.07403        -0.86240
C         45.36358        40.35534        -1.01683
C         44.08054        39.58197        -0.91239
C         45.28736        41.86673        -0.90020
C         44.02150        42.56059        -0.46790
C         45.45685        44.53930         0.37653
C         44.06627        44.02411        -0.05180
C         45.41343        46.05481         0.77489
C         44.14607        46.73554         1.15135
C         43.93948        48.18730         1.06737
C         47.57968        27.11344         0.18083
C         46.56483        26.48966        -0.13091
C         47.90619        28.53594         0.03423
C         46.64684        29.25517        -0.47681
C         47.79803        31.51842         0.07432
C         46.52867        30.72507        -0.16163
C         47.64723        33.00538         0.33695
C         46.44822        33.74072        -0.16837
C         47.74063        36.02734        -0.10273
C         46.50914        35.23967        -0.44046
C         48.03145        37.39006        -0.77846
C         46.75764        38.22222        -1.23457
C         47.81119        40.40098        -0.60998
C         46.65995        39.66415        -0.75858
C         47.89383        41.87509        -0.93999
C         46.58881        42.65766        -1.01613
C         47.90167        44.90755        -0.71198
C         46.56910        44.12321        -0.64602
C         47.65979        46.25381        -0.19278
C         46.61691        46.71275         0.26767
C         50.34030        28.85052         0.86411
C         48.88417        29.25744         0.93562
C         50.04232        31.57640         1.41644
C         48.98802        30.79837         0.64736
C         49.97525        33.09012         1.39650
C         48.93140        33.76486         0.53546
C         50.10283        36.03959         0.92592
C         48.98145        35.25739         0.32378
C         49.96139        37.53617         0.98784
C         48.91649        38.23069         0.15208
C         50.29128        40.46223         0.18397
C         49.07998        39.68217        -0.25770
C         50.25279        41.97798         0.18708
C         49.19193        42.63510        -0.68149
C         50.47770        44.70467        -0.29333
C         49.19773        44.17852        -0.77681
C         51.34631        29.48053         1.19564
C         52.45992        31.83219         1.84157
C         51.39485        30.84696         1.72338
C         52.36651        33.06181         1.88941
C         51.20867        33.93820         1.72418
C         52.26280        36.28657         1.77549
C         51.21977        35.37434         1.38739
C         52.24514        37.51183         1.92142
C         51.12767        38.38657         1.54237
C         52.48138        40.65050         1.22554
C         51.28317        39.80654         1.14040
C         52.60556        41.84779         0.95210
C         51.50053        42.76749         0.67454
C         51.48142        44.11653         0.11956
O         43.35236        44.89490        -0.95772
O         46.56287        33.38457         1.22853
O         41.86674        29.98496         1.16535
O         47.80340        28.96363        -1.32214
O         46.31657        43.70215        -1.99649
O         41.55997        39.19367        -2.03839
O         41.82873        47.64236         2.59277
O         39.97972        43.55497         2.49972
O         44.59905        39.96802        -2.20707
O         39.40091        37.89525        -2.29290
O         35.78745        42.23048        -1.96947
O         33.25780        31.51017         2.69409
O         37.46965        45.05503         2.71410
O         43.53650        37.47833         0.34507
O         42.48266        33.74144         0.63516
O         38.64634        35.61177         0.80338
O         46.95877        38.46733        -2.73426
O         37.93801        41.47141        -1.32155
O         50.17234        33.67196         2.71414
O         33.34662        33.21297        -0.47305
O         50.71576        39.43708         2.42325
O         45.57256        36.59923        -2.50677
O         32.53045        36.14485        -1.25652
O         37.31557        31.87977        -1.00247
O         45.53495        31.11009         0.83616
O         36.29167        33.88755         1.81807
O         33.60909        41.92959         0.92183
O         39.63661        39.37011         0.97720
O         40.58496        42.23958        -1.15437
O         41.49672        25.99954         1.78557
O         35.25669        43.98733         1.78850
O         44.02459        34.17735        -2.50916
O         45.59028        27.60701        -2.01619
O         36.53770        28.81367         2.39046
O         35.54313        35.20099        -1.38361
O         37.93971        29.27797        -1.15291
O         49.45732        34.32132        -0.70852
O         40.62519        35.17368        -2.35133
O         48.67729        37.97632         1.55311
O         38.10944        26.59069        -1.26290
O         50.23461        39.87888        -1.14376
O         43.16667        28.64788        -1.92972
O         33.94549        38.63700        -2.00678
O         31.57400        39.10286         0.89387
O         43.01799        40.79198         1.01573
O         43.19032        31.22003        -2.02245
O         40.35048        32.63344         1.17409
O         39.70482        46.16823         3.02667
O         50.37470        31.01598         2.72871
O         44.31960        42.38296        -1.86787
O         40.44722        27.71936        -1.46335
O         48.91505        42.05012        -1.97024
O         45.11849        46.26705         2.16674
O         48.59561        44.71905        -1.95273
O         36.41728        31.40788         2.41107
O         31.63851        34.82674         2.16188
O         46.64555        35.99610         0.82512
O         50.35948        42.54201         1.53363
O         48.93663        31.18638        -0.75243
O         40.77980        44.65244        -0.83285
H         41.38949        44.58366        -1.60358
O         38.92538        33.41369        -2.12860
H         38.31692        32.65852        -2.30905
O         42.73577        36.30098        -2.93364
H         42.72535        35.48046        -3.47220
O         38.83855        41.38477         2.09359
H         39.45238        41.74643         2.77149
O         48.43742        29.08287         2.26086
H         49.07836        29.51963         2.87194
O         43.57260        27.39334         1.35292
H         43.12628        26.85660         2.05293
O         48.02003        39.39151        -2.95531
H         48.84642        38.84600        -2.87211
O         31.00049        42.60001         1.54053
H         31.64788        43.17083         2.00118
O         32.45594        40.75919        -2.31543
H         32.76330        40.00766        -2.87234
O         46.09855        32.84063        -2.30495
H         45.50524        33.26063        -2.97577
O         36.00815        41.50608         1.63257
H         35.38561        42.04714         2.17595
O         34.20442        35.82336         2.00374
H         33.45344        35.51019         2.56227
O         43.53312        25.99070        -2.03851
H         44.07666        26.51872        -2.66837
O         45.82006        43.80920         1.56524
H         45.64769        44.38771         2.34703
O         31.52700        30.37977        -0.37263
H         30.72911        29.86820        -0.61815
O         39.21557        30.43122         1.88922
H         39.52589        31.23350         2.36720
O         34.56193        44.45583        -1.76740
H         33.96411        44.07631        -2.44335
O         48.83166        37.08559        -1.93102
H         48.23471        36.81096        -2.66412
