         252
 CSIRO Nanostructure Databank - Neutral Graphene Oxide Data Set
C         30.39901        31.85327        -1.40749
C         30.51821        33.02995        -1.75814
C         30.51507        36.22369        -1.57995
C         30.50683        37.28363        -0.93030
C         30.53896        39.91282         0.75098
C         30.47260        40.97949         1.42409
C         32.62886        29.08616        -0.25555
C         31.59461        29.65151        -0.63459
C         32.78321        31.76136        -0.86502
C         31.36141        31.13137        -0.51067
C         32.96172        33.08281        -1.63359
C         31.67768        33.89451        -1.95964
C         32.93982        36.10794        -1.46534
C         31.68642        35.38730        -1.86039
C         32.94425        37.55517        -1.20034
C         31.58924        38.25922        -0.86506
C         32.81356        40.18504         0.24446
C         31.63265        39.40776         0.03923
C         32.76876        41.39479         0.98007
C         31.54450        41.86795         1.59023
C         32.72345        43.75235         2.30753
C         31.63141        43.14687         2.24531
C         35.39857        27.46004        -0.24048
C         35.29196        28.93211        -0.14672
C         33.97547        29.65091        -0.12207
C         35.24564        31.75826        -0.51347
C         33.92143        31.07987        -0.58026
C         35.29053        33.24850        -0.64662
C         34.06117        33.95866        -1.04618
C         35.40942        36.10489        -1.19977
C         34.09432        35.34705        -1.17236
C         35.32432        37.49357        -0.60655
C         34.16529        38.20719        -0.64510
C         35.34056        40.23550         0.38780
C         34.12439        39.71396        -0.37563
C         35.29621        41.44455         1.00659
C         34.01879        42.27461         0.94179
C         35.21860        44.12181         2.16968
C         34.05045        43.44582         1.94665
C         35.41907        45.46326         2.62278
C         37.83759        27.44436        -0.17467
C         36.51162        26.92011        -0.21333
C         37.85940        28.83671        -0.48429
C         36.59945        29.60879        -0.57562
C         37.59456        31.81684        -1.19909
C         36.49144        30.98763        -0.79225
C         37.78074        33.15741        -0.89172
C         36.59453        33.95047        -0.75347
C         37.91306        36.02706        -0.66590
C         36.63845        35.32954        -0.76404
C         37.89517        37.36687        -0.37083
C         36.63440        38.15495        -0.39887
C         37.91183        40.06486         0.72074
C         36.64682        39.56357         0.12565
C         37.83471        41.29903         1.54426
C         36.51671        42.04057         1.63313
C         37.70192        44.23751         1.96137
C         36.53270        43.51469         1.89325
C         37.75584        45.70752         2.31911
C         36.40311        46.21556         2.58879
C         40.04802        24.71208         1.04445
C         39.05865        25.36953         0.62423
C         40.23087        27.40080         0.52737
C         38.98176        26.74358         0.28693
C         40.31377        28.79263         0.19071
C         39.18336        29.43158        -0.41212
C         40.49556        31.53919        -0.55506
C         39.44430        30.71465        -0.93302
C         40.43571        33.00976        -0.85860
C         39.13514        33.79685        -0.57071
C         40.48694        35.96356        -0.60599
C         39.20444        35.27070        -1.06181
C         40.45218        37.44469        -0.52917
C         39.14223        38.17719        -0.34039
C         40.38975        40.12721         0.75049
C         39.11870        39.47954         0.40136
C         40.36620        41.46537         1.19845
C         39.10996        42.07510         1.68293
C         40.13204        44.34979         1.14110
C         39.02839        43.57831         1.80366
C         40.04346        45.84805         1.05730
C         38.90760        46.53879         1.81197
C         39.72057        48.49887         0.66810
C         38.93169        47.98123         1.51384
C         42.59069        24.68964         1.62148
C         41.32509        25.23993         1.27562
C         42.64848        27.35572         1.00316
C         41.41532        26.68367         0.96439
C         42.67681        28.86860         1.10366
C         41.52535        29.52798         0.37109
C         42.85685        31.65178         0.18601
C         41.60469        30.90324         0.06664
C         42.89970        32.99240        -0.13177
C         41.70519        33.76271        -0.58702
C         42.89228        35.90362        -0.00824
C         41.67676        35.25311        -0.37247
C         42.99182        37.35403        -0.01063
C         41.70501        38.18731        -0.18078
C         42.87997        40.16284         0.74007
C         41.64009        39.49531         0.46753
C         42.90226        41.61540         1.18171
C         41.54331        42.29269         1.13048
C         42.55445        44.45836         0.38992
C         41.44043        43.66862         0.99830
C         42.43261        45.92901         0.15324
C         41.31621        46.68070         0.87029
C         42.10742        48.57418        -0.45594
C         40.99008        48.11853         0.22160
C         43.66817        25.31030         1.73200
C         45.12756        27.41696         1.50938
C         43.98172        26.59606         1.01437
C         45.21900        28.80453         1.16093
C         44.01739        29.52507         0.80789
C         45.33154        31.58570         0.52358
C         44.06872        30.88610         0.50461
C         45.37441        32.99440         0.34147
C         44.19210        33.76617        -0.18643
C         45.42486        35.86613         0.45345
C         44.07956        35.12210         0.54174
C         45.43031        37.32355         0.40724
C         44.12495        37.99047         0.77814
C         45.37211        40.24960         0.60878
C         44.09510        39.50086         0.68748
C         45.35613        41.78467         0.47821
C         43.92384        42.36663         0.29803
C         45.10769        44.64435        -0.06241
C         43.94130        43.89070         0.62608
C         44.84250        46.05287        -0.55913
C         43.65755        46.70825        -0.30438
C         43.23964        48.02242        -0.63514
C         47.45876        27.53971         2.09263
C         46.33959        26.94896         1.99823
C         47.70378        28.82424         1.59626
C         46.49034        29.46916         1.16006
C         47.74934        31.57564         0.93067
C         46.52978        30.85772         0.79573
C         47.61485        32.94202         1.15496
C         46.52826        33.71664         0.70269
C         47.93767        35.99692         0.73571
C         46.61046        35.18074         0.57286
C         47.89028        37.31630        -0.07618
C         46.56318        38.01901         0.11778
C         47.62393        40.14237        -0.74869
C         46.59806        39.50225         0.17678
C         47.64258        41.66950        -0.78088
C         46.29564        42.36852        -0.63380
C         47.48249        44.58153        -1.29934
C         46.36254        43.90091        -0.48954
C         46.98607        45.88604        -1.78531
C         45.99035        46.45364        -1.30322
C         50.35323        29.02254         1.73697
C         49.01376        29.42011         1.28511
C         50.36445        31.65618         0.83027
C         49.07255        30.91506         0.87864
C         50.33616        33.00238         0.10008
C         49.46845        34.02798         0.78067
C         50.45778        36.03931        -0.03145
C         49.21756        35.27322         0.30556
C         50.45557        37.54060         0.10547
C         49.10220        38.28511         0.28887
C         50.05592        40.17948        -1.14971
C         49.00991        39.54649        -0.56402
C         49.76538        41.39837        -1.97585
C         48.65131        42.26629        -1.47279
C         49.57717        44.02696        -2.86368
C         48.63967        43.76326        -1.75720
C         51.43131        29.61272         1.59197
C         52.77763        31.75557         0.73707
C         51.65719        30.76743         0.63820
C         52.78717        32.83250         0.12214
C         51.70061        33.72583        -0.25835
C         52.79394        36.17876        -0.50215
C         51.68473        35.21016        -0.47881
C         52.77129        37.40654        -0.58686
C         51.68024        38.35625        -0.33633
C         52.30538        40.30039        -2.03602
C         51.47683        39.67337        -0.99701
C         52.04167        41.20194        -2.83228
C         50.77887        41.91561        -3.02514
C         50.52961        43.33765        -3.23972
O         31.77415        34.68976        -3.15052
O         32.22941        38.43273        -2.15172
O         49.68632        41.08527        -3.44058
O         37.01926        41.21880         2.75190
O         35.26573        32.59038         0.71048
O         39.36244        42.76359         2.96074
O         38.59363        31.18280        -1.92861
O         36.79841        39.30283        -1.31824
O         42.70949        38.06419        -1.24258
O         46.45280        39.90460         1.57268
O         48.65770        33.57922         1.82503
O         42.12977        44.97757        -0.91124
O         49.06185        29.77787        -0.12631
O         41.26217        33.42330        -1.96803
O         51.92235        39.58295         0.37329
O         48.73497        44.58059        -0.57156
O         34.30195        40.34968        -1.75137
O         38.83045        46.11788         3.19491
O         39.78975        38.13734        -1.66395
O         34.72792        29.42693         1.08820
O         39.62625        45.05390        -0.07049
O         46.29306        44.53534         0.80683
O         51.60252        34.30487        -1.58518
O         50.79571        36.72609         1.25869
O         33.49870        32.66427        -2.91950
H         33.29841        33.37981        -3.56716
O         34.03421        42.96332        -0.33160
H         33.70567        42.36013        -1.04119
O         48.04476        36.96803        -1.46732
H         47.59226        37.65276        -2.01062
O         42.44053        29.13507         2.53791
H         42.36778        30.10696         2.65209
O         43.82548        34.84852         1.93921
H         43.78449        35.72488         2.39623
O         44.30354        26.26835        -0.34981
H         43.62816        25.64694        -0.69469
O         43.30967        41.59949         2.55951
H         43.53189        42.53193         2.80787
O         33.07561        40.99365        -2.14550
H         32.55438        40.23841        -2.53766
O         44.43799        34.09662        -1.57781
H         44.29673        33.29481        -2.12300
O         49.66940        32.75409        -1.16104
H         50.23578        32.14671        -1.68539
O         48.01541        36.30699         2.14413
H         48.22222        35.46545         2.61129
O         39.19973        35.26303        -2.50284
H         39.44534        36.16465        -2.80740
O         41.84030        46.96937         2.16704
H         41.14271        47.38621         2.71785
O         49.00635        38.72643         1.63686
H         49.04408        37.92651         2.21428
O         43.38427        42.18439        -1.01140
H         44.01533        42.50456        -1.69849
O         51.65859        30.24713        -0.66688
H         50.83183        29.71286        -0.77352
O         43.86960        37.64599         2.18116
H         44.50351        38.15601         2.73169
O         45.73722        42.17094        -1.96647
H         45.88791        41.22934        -2.23235
O         35.62658        36.33439        -2.63033
H         36.36923        36.96842        -2.73136
O         31.08761        31.46004         0.82288
H         30.24667        31.04241         1.09911
O         44.09558        44.10958         2.04521
H         45.06200        44.02728         2.24411
O         45.85332        42.28601         1.72694
H         46.43742        41.58940         2.11582
O         39.13109        33.85102         0.88816
H         38.23679        34.11445         1.19458
O         47.15424        39.73621        -2.08593
H         47.82742        40.02129        -2.74707
