         429
 CSIRO Nanostructure Databank - Neutral Graphene Oxide Data Set
C          1.05753         4.00547         1.83081
C         -0.13358         4.69481         1.66574
C          1.07505         6.80381         1.36391
C         -0.13038         6.07470         1.42502
C          1.10551         8.21881         1.04117
C         -0.07184         8.90198         0.67673
C          1.15672        10.96022         0.21562
C         -0.04997        10.22842         0.27760
C          1.18128        12.31798        -0.26796
C         -0.00250        12.99747        -0.66718
C          1.24027        15.03809        -1.19111
C          0.02453        14.30838        -1.09290
C          1.24193        16.42563        -1.55194
C          0.08154        17.21697        -1.57114
C          1.35092        19.24093        -2.19074
C          0.13398        18.56319        -1.91261
C          1.33862        20.64773        -2.55174
C          0.16848        21.34760        -2.77911
C          1.27222        23.54319        -2.72873
C          0.14246        22.76448        -2.85935
C          1.12914        24.98173        -2.39842
C         -0.15134        25.60428        -2.01596
C          0.93916        27.35318        -0.68195
C         -0.20256        26.82741        -1.39324
C          1.04937        28.67265        -0.03774
C         -0.06800        29.45519         0.14727
C          1.15092        31.60105         0.30713
C         -0.00643        30.85735         0.40831
C          1.17359        33.03662         0.59812
C         -0.02235        33.67916         1.11978
C          1.03031        35.90385         1.17387
C         -0.08662        34.99521         1.44207
C          1.12215        37.20100         1.86838
C          3.51954         4.00639         1.92076
C          2.29616         4.70083         1.78945
C          3.54563         6.83564         1.60791
C          2.30407         6.11744         1.58034
C          3.54186         8.25912         1.40974
C          2.34919         8.93329         1.05449
C          3.58451        11.04727         0.56741
C          2.37282        10.32302         0.63359
C          3.62436        12.38286         0.08705
C          2.41846        13.01827        -0.35085
C          3.70766        15.04059        -0.87410
C          2.45823        14.36000        -0.84159
C          3.78736        16.34412        -1.55167
C          2.50950        17.07680        -1.92092
C          3.84849        19.19933        -2.21521
C          2.57866        18.54013        -2.12105
C          3.88890        20.64715        -2.37232
C          2.62112        21.34383        -2.71854
C          3.87288        23.58594        -2.40189
C          2.59956        22.87823        -2.79808
C          3.79334        24.96544        -1.80448
C          2.41351        25.60928        -1.73876
C          3.91675        27.36099         0.05019
C          2.04818        26.52345        -0.69037
C          3.72656        28.74560         0.15109
C          2.38251        29.38216        -0.06827
C          3.78033        31.60779        -0.05830
C          2.39537        30.89729        -0.10874
C          3.64103        33.12392         0.16890
C          2.34247        33.77222         0.47264
C          3.58371        35.94329         1.09076
C          2.34483        35.23482         0.71729
C          3.55605        37.29462         1.54144
C          2.28805        37.88772         1.93408
C          5.98035         3.97109         1.93376
C          4.74559         4.69386         1.89531
C          6.05098         6.81272         1.90088
C          4.75047         6.11972         1.80932
C          6.09770         8.31683         1.74019
C          4.78751         9.03149         1.57959
C          6.13248        11.10313         0.79710
C          4.82564        10.45946         1.10151
C          6.08071        12.49339         0.58688
C          4.84862        13.12316         0.13922
C          6.12015        15.28927        -0.21589
C          4.87032        14.45204        -0.34711
C          6.19129        16.47291        -1.13732
C          5.04412        17.11770        -1.51861
C          6.32530        19.17750        -1.98571
C          5.06238        18.49007        -1.98664
C          6.37912        20.61493        -2.45018
C          5.07924        21.35878        -2.28095
C          6.32265        23.46233        -1.88178
C          5.13398        22.80168        -2.18897
C          6.33394        24.96864        -1.64567
C          5.02083        25.33662        -0.89650
C          6.26592        27.53523        -0.31086
C          5.08400        26.77204        -0.41593
C          6.17649        28.86257         0.20328
C          4.90955        29.48058         0.36960
C          6.02664        31.55355         1.38102
C          4.68697        30.87156         0.95694
C          6.03506        33.08967         1.17875
C          4.87428        33.85305         0.59794
C          6.02655        35.98510         1.12500
C          4.82276        35.28244         1.01009
C          6.01855        37.35961         1.50548
C          4.76369        37.97756         1.75319
C          8.42592         3.85567         1.69653
C          7.21513         4.60226         1.75894
C          8.48230         6.70179         1.41744
C          7.27976         6.04084         1.65535
C          8.51332         8.13513         1.16551
C          7.33479         8.93313         1.20887
C          8.56077        10.76706         0.15129
C          7.33871        10.28094         0.73345
C          8.68373        11.98416        -0.73071
C          7.27147        13.32656         0.66939
C          8.66287        15.06261        -0.48195
C          7.39421        14.48707        -0.09903
C          8.71853        16.38346        -0.97103
C          7.50578        17.00551        -1.60803
C          8.79151        19.17335        -1.76531
C          7.51366        18.50663        -1.72407
C          8.81635        20.62580        -1.87478
C          7.59844        21.34792        -1.95661
C          8.79006        23.42277        -1.40808
C          7.57575        22.73853        -1.75318
C          8.77825        24.81129        -0.99874
C          7.55913        25.51343        -0.92578
C          8.73536        27.53307        -0.12381
C          7.53952        26.85881        -0.48810
C          8.69285        28.90572         0.33785
C          7.40801        29.59547         0.49528
C          8.55117        31.63994         1.32399
C          7.32791        30.92123         0.88197
C          8.59897        33.12123         1.28105
C          7.31617        33.85347         1.21980
C          8.54343        36.01627         1.17564
C          7.30586        35.29542         0.72442
C          8.49968        37.36383         1.54696
C          7.25420        38.04236         1.68077
C         10.86317         3.73354         1.48270
C          9.65143         4.48243         1.47395
C         10.91171         6.54612         1.00572
C          9.69951         5.92666         1.28053
C         10.98134         7.96665         0.82604
C          9.74873         8.73268         0.79837
C         11.06658        10.63087        -0.22715
C          9.75499        10.05457         0.29324
C         11.07832        12.14747        -0.26190
C          9.88835        12.84726        -0.45064
C         11.13560        14.95083        -0.62754
C          9.88098        14.28053        -0.48320
C         11.16742        16.35627        -0.92013
C          9.95807        17.05068        -1.15607
C         11.26554        19.11871        -1.72581
C          9.96490        18.45293        -1.52289
C         11.29742        20.61878        -1.98645
C         10.03008        21.34181        -1.78234
C         11.27154        23.42034        -1.20522
C         10.02526        22.72880        -1.47970
C         11.24410        24.77919        -0.77846
C          9.99569        25.47427        -0.65114
C         11.21076        27.51751         0.06232
C          9.97915        26.84192        -0.23208
C         11.17480        28.90545         0.47915
C          9.89512        29.55272         0.63995
C         11.11857        31.71636         1.21279
C          9.88387        30.91091         1.21341
C         11.04442        33.09278         1.37191
C          9.78764        33.80656         1.29160
C         11.03899        36.02557         1.50334
C          9.84070        35.29635         0.94613
C         10.96135        37.42612         1.78363
C          9.73952        38.06446         1.81670
C         13.30859         3.61620         1.36036
C         12.10727         4.32820         1.24178
C         13.43359         6.46009         0.98543
C         12.14353         5.73422         0.68842
C         13.45409         7.89954         0.85035
C         12.21634         8.61119         0.69767
C         13.54337        10.74098         0.28610
C         12.21497        10.11905         0.65174
C         13.57906        12.09092        -0.06159
C         12.32964        12.83222        -0.25029
C         13.64882        14.87406        -0.86078
C         12.34819        14.20626        -0.50743
C         13.61115        16.35950        -0.64900
C         12.43945        17.06108        -0.94694
C         13.71350        19.18296        -1.20460
C         12.49034        18.45468        -1.26006
C         13.77704        20.59319        -1.43194
C         12.61116        21.39371        -1.97975
C         13.72292        23.44181        -1.10378
C         12.52037        22.76929        -1.35841
C         13.70826        24.78214        -0.65159
C         12.46835        25.45995        -0.50745
C         13.68443        27.50831         0.16578
C         12.44336        26.83624        -0.09269
C         13.63614        28.85441         0.75924
C         12.36052        29.59294         0.78446
C         13.57843        31.72688         1.12977
C         12.38684        31.01607         1.07781
C         13.59841        33.16217         1.45890
C         12.26659        33.87614         1.61883
C         13.50265        36.05371         1.63213
C         12.25819        35.34909         1.57253
C         13.49596        37.46872         1.79370
C         12.21688        38.16510         2.20582
C         15.77286         3.55641         1.34834
C         14.57097         4.26653         1.25252
C         15.87849         6.39611         1.34387
C         14.58704         5.72119         1.16692
C         15.92134         7.90413         1.13403
C         14.67260         8.60536         0.82224
C         16.00866        10.65061         0.37838
C         14.74932        10.00219         0.48443
C         16.05191        12.05558         0.10703
C         14.84149        12.77035        -0.14370
C         16.12122        14.84004        -0.35079
C         14.89522        14.17291        -0.37088
C         16.16634        16.32330        -0.34210
C         14.85857        17.09164        -0.47005
C         16.16402        19.13570        -0.93878
C         14.91562        18.49544        -0.86579
C         16.19359        20.54981        -1.07127
C         14.98729        21.26536        -1.26780
C         16.12040        23.29943        -0.43797
C         15.05802        22.77135        -1.41167
C         16.16128        24.80859        -0.45366
C         14.96293        25.48693        -0.40701
C         16.16828        27.62571         0.03867
C         14.92109        26.88757        -0.03451
C         16.15475        29.01181         0.28854
C         14.94646        29.60996         0.86986
C         15.94596        31.86507         0.31554
C         14.94984        31.09532         1.15943
C         15.88733        33.36878         0.40202
C         14.75462        33.99445         1.09662
C         15.91568        36.15488         0.96528
C         14.73054        35.37363         1.28446
C         15.89147        37.58385         1.23729
C         14.67257        38.19202         1.65926
C         18.26821         3.46218         1.25307
C         17.05052         4.19607         1.26499
C         18.34585         6.25827         0.96317
C         17.11790         5.61129         1.17390
C         18.37774         7.68237         0.57405
C         17.18975         8.52406         0.72838
C         18.52999        10.54984         0.38525
C         17.24173         9.88615         0.46361
C         18.53182        12.02184         0.42729
C         17.29695        12.74916         0.08803
C         18.62157        14.81404        -0.37204
C         17.34880        14.13118        -0.17185
C         18.61273        16.18750        -0.92819
C         17.39273        17.01253        -0.77394
C         18.61126        19.05349        -1.60473
C         17.39507        18.36958        -0.99597
C         18.60970        20.54764        -1.36334
C         17.46585        21.23452        -1.07053
C         18.59516        23.50784        -1.25046
C         17.53833        22.66313        -0.56195
C         18.59679        24.85584        -1.05260
C         17.48801        25.48346        -0.22094
C         18.54476        27.75997        -0.52662
C         17.40364        26.99143        -0.30674
C         18.52496        29.17795        -0.34520
C         17.31459        29.81095         0.04933
C         18.38779        32.03200        -0.18477
C         17.25497        31.23772         0.08235
C         18.30976        33.48017        -0.15919
C         17.12976        34.13644         0.20012
C         18.22172        36.40256        -0.01332
C         17.06230        35.55138         0.45046
C         18.26493        37.78167         0.62196
C         17.05936        38.34669         1.10942
C         19.48721         4.11241         1.15657
C         20.81971         6.22128         0.95701
C         19.55418         5.51778         0.98424
C         20.91339         7.56633         0.78118
C         19.73767         8.37427         0.40835
C         20.98444        10.56593         0.27721
C         19.73758         9.85786         0.43728
C         21.05092        11.91425         0.10213
C         19.86995        12.76284         0.29679
C         21.07785        14.89519        -0.29388
C         19.83699        14.16653        -0.18958
C         21.13663        16.21836        -0.60350
C         19.94914        16.94458        -1.06080
C         21.08233        19.18864        -1.09630
C         19.91543        18.41953        -1.14956
C         21.10963        20.54389        -1.41883
C         19.87197        21.27819        -1.63583
C         21.08902        23.59405        -1.63410
C         19.83049        22.81313        -1.71798
C         21.06938        24.93159        -1.51862
C         19.79160        25.67385        -1.40101
C         21.02069        27.93640        -0.94126
C         19.78041        27.14710        -1.08184
C         20.97346        29.26162        -0.67850
C         19.71825        29.96554        -0.46632
C         20.86011        32.18311        -0.31945
C         19.65722        31.36766        -0.35271
C         20.81632        33.52946        -0.31958
C         19.53667        34.29120        -0.55361
C         20.70003        36.56380        -0.26068
C         19.55965        35.66151         0.15633
C         20.62597        37.90036        -0.03099
C         19.44137        38.50401         0.51724
O         11.31556        19.68243        -3.11030
O          7.97473        12.13613        -1.71440
O          4.52643        33.78152        -0.81714
O         19.01276         7.85121        -0.75091
O         14.40835        28.89571         2.03422
O         15.40888        32.60984        -0.80869
O          6.20896         7.71629         3.06901
O         19.57472        26.65748        -2.47652
O          2.33221        30.14707        -1.35437
O          6.48208        33.73534         2.42563
O          2.75235        22.06404        -3.99686
O         15.94494         7.31383         2.49575
O         19.27932        16.30449        -2.22942
O          4.67974        10.13955         2.54810
O          2.87247        26.50749         0.43126
O         15.52343        16.86436         0.85428
O          1.96914        25.96220        -3.06743
O         13.03256        33.43432         2.79306
O         19.22331        12.58193         1.59872
O         18.06846        22.54460         0.76281
O         19.76704        22.01763        -2.92941
O          3.26423        16.30224        -2.92741
O          9.16900        31.02291         2.50317
O          1.48340        35.96774        -0.21328
O          4.11355        24.77936        -3.21479
O          4.44410        31.40798        -1.31076
H          3.84860        31.69538        -2.03402
O         11.28728        10.14194        -1.56921
H         10.57827        10.49297        -2.14798
O         15.42136        23.09275        -2.76893
H         14.70956        22.72958        -3.34773
O         12.95786        21.64935        -3.38227
H         12.63644        20.86855        -3.89291
O         15.62930        22.91952         0.86845
H         16.46263        22.69597         1.37796
O          6.44773        25.67568        -2.89969
H          5.72746        25.37159        -3.50383
O         15.43586        31.25705         2.52137
H         15.00238        30.55172         3.05562
O         17.86635        25.19226         1.16462
H         17.99289        24.19184         1.21916
O         11.90611        10.58451         2.00250
H         12.61777        10.27235         2.60033
O          6.13044        31.31132         2.80859
H          6.63259        32.07032         3.19569
O         12.20913        38.30497         3.64335
H         12.26300        37.40890         4.03580
O          7.61225        16.52775        -3.01565
H          6.90192        16.96881        -3.53072
O         13.75559        14.74781        -2.33911
H         12.90473        15.05125        -2.72426
O          5.97783        15.94316         1.11755
H          5.94842        15.23340         1.79509
O         18.52751        18.82782        -3.04521
H         18.69910        17.86558        -3.19211
O          8.25696        12.96566         1.53831
H          8.00369        12.15350         2.02418
O         19.46557        34.53816        -1.98124
H         19.35707        33.67517        -2.43190
O         10.07002        35.30221        -0.51464
H          9.18460        35.15678        -0.93707
O          3.86049        30.72297         2.12826
H          4.47582        30.67784         2.90201
O         18.01422        36.63656        -1.43091
H         17.14768        37.07994        -1.53888
O          7.33868        35.21230        -0.74990
H          6.96516        36.04504        -1.10928
O          4.93046        24.47350         0.26179
H          4.29560        24.88238         0.89021
O         12.12920         5.57372        -0.77889
H         11.31381         5.07962        -1.00922
O         19.74900        35.36360         1.56072
H         19.81114        36.21375         2.04509
O          6.55954        20.54516        -3.91624
H          5.68595        20.34674        -4.31713
H          1.05638         2.91951         2.00063
H         -1.09095         4.15713         1.70938
H         -1.09457         6.58079         1.28607
H         -1.03593         8.37728         0.67830
H         -0.99733        10.69720        -0.01766
H         -0.97216        12.48458        -0.62732
H         -0.92014        14.78784        -1.38307
H         -0.89182        16.77843        -1.31258
H         -0.80866        19.12510        -1.92618
H         -0.79927        20.82960        -2.77952
H         -0.84395        23.24602        -2.90298
H         -1.08845        25.14212        -2.35691
H         -1.17161        27.33709        -1.28920
H         -1.06449        28.99440         0.08564
H         -0.95862        31.34708         0.65096
H         -0.89759        33.05561         1.34300
H         -0.97301        35.39327         1.95853
H          0.20392        37.61940         2.30759
H          3.51283         2.91179         2.02678
H          2.31512        38.88043         2.40775
H          5.94445         2.87573         2.02553
H          4.73956        39.01629         2.11462
H          8.38850         2.76451         1.82966
H          7.24918        39.10056         1.97838
H         10.81887         2.66717         1.75245
H          9.68961        39.13086         2.08260
H         13.28067         2.54559         1.61492
H         12.20035        39.20478         1.79081
H         15.73877         2.46095         1.44511
H         14.66358        39.27774         1.83954
H         18.23354         2.36656         1.33814
H         17.04521        39.40607         1.40940
H         20.42130         3.53262         1.18239
H         21.72907         5.63951         1.17093
H         21.88672         8.06352         0.90192
H         21.90235         9.97290         0.15727
H         22.00063        12.37135        -0.20950
H         22.00299        14.38596         0.01049
H         22.08951        16.75533        -0.49867
H         22.04200        18.69241        -0.88689
H         22.07957        21.04414        -1.54205
H         22.04578        23.06930        -1.77098
H         22.01191        25.49712        -1.54955
H         21.98987        27.45502        -1.13388
H         21.91593        29.82445        -0.63727
H         21.83529        31.68410        -0.23040
H         21.75604        34.09797        -0.26122
H         21.63552        36.12390        -0.63570
H         21.49015        38.54696        -0.24342
H         19.47276        39.55605         0.83780
