         324
 CSIRO Nanostructure Databank - Neutral Graphene Oxide Data Set
C          1.38574         3.42361         0.72501
C          0.21423         4.11175         1.02011
C          1.23308         6.22932         0.32780
C          0.14078         5.49572         0.85228
C          1.16690         7.67256         0.16728
C          0.05083         8.42185         0.53391
C          1.14291        10.60710         0.16670
C         -0.00077         9.82728         0.45880
C          1.14714        12.02962         0.29137
C         -0.06443        12.78706         0.24782
C          1.12350        14.98432         0.35478
C         -0.09229        14.15193         0.23614
C          1.05334        16.39391        -0.09568
C         -0.14107        17.12273        -0.02461
C          0.94189        19.20887        -0.82536
C         -0.25785        18.43979        -0.45044
C          1.01136        20.62743        -0.37721
C         -0.11343        21.46571        -0.46015
C          1.03000        23.24315         0.73569
C         -0.06907        22.79200        -0.02549
C          1.16811        24.63820         1.20217
C          0.03414        25.42825         1.31037
C          1.25444        27.55350         1.31196
C          0.06736        26.84552         1.39201
C          1.29877        28.98729         1.19067
C          3.76643         3.42567         0.10527
C          2.51648         4.11729         0.22251
C          3.56077         6.22017        -0.62665
C          2.41016         5.51563        -0.02966
C          3.59859         7.69232        -0.58988
C          2.26181         8.40792        -0.57571
C          3.52129        10.54107        -0.41995
C          2.35223         9.87678        -0.20031
C          3.62880        11.99206        -0.14161
C          2.43359        12.76621         0.33119
C          3.69629        15.10661         0.06276
C          2.45763        14.29362         0.41917
C          3.55184        16.32918        -0.54784
C          2.20587        16.92592        -0.92269
C          3.49716        19.19394        -0.62646
C          2.23249        18.47230        -0.95585
C          3.50717        20.41885        -0.01059
C          2.20529        21.09472         0.23357
C          3.94884        23.29630         1.29212
C          2.04852        22.29268         0.96488
C          3.77345        24.61470         1.04840
C          2.49121        25.28567         1.42738
C          3.77363        27.54026         1.04210
C          2.52704        26.82455         1.41767
C          3.74928        28.96994         0.97373
C          2.48029        29.66103         1.08086
C          6.22871         3.46703        -0.09351
C          4.96355         4.08191        -0.19529
C          6.14019         6.27428        -0.67750
C          4.90101         5.47924        -0.66908
C          6.06647         7.66258        -0.81807
C          4.79856         8.35653        -0.74110
C          6.08541        10.61412        -0.66913
C          4.81747         9.83072        -0.54148
C          6.08394        12.09497        -0.80982
C          4.71448        12.63954        -0.99275
C          6.14867        15.01936        -0.48556
C          5.06546        14.60224         0.30759
C          6.04325        16.33938        -1.13549
C          4.72918        17.04181        -1.10975
C          6.02535        19.22689        -0.93334
C          4.70629        18.56466        -1.27750
C          6.05120        20.53307        -0.52685
C          4.85825        21.08678         0.21129
C          6.29971        23.24026         0.54176
C          5.06619        22.46756         0.81104
C          6.26313        24.69026         1.01212
C          4.97313        25.36668         0.50362
C          6.17751        27.57555         0.60117
C          4.97018        26.85756         0.78270
C          6.17814        29.00756         0.60876
C          4.93447        29.67917         0.75016
C          8.68173         3.51201        -0.22032
C          7.43912         4.17225        -0.33219
C          8.61106         6.32946        -0.71944
C          7.39628         5.59753        -0.58993
C          8.61442         7.72593        -0.88836
C          7.31968         8.40665        -1.08267
C          8.57933        10.66717        -0.99848
C          7.31759         9.90660        -1.12210
C          8.52803        12.06188        -0.97821
C          7.28301        12.79828        -0.82975
C          8.54200        14.94332        -1.07660
C          7.34648        14.25567        -0.74934
C          8.52703        16.39190        -1.21491
C          7.30588        17.10365        -1.21914
C          8.47413        19.22183        -1.42663
C          7.26525        18.52378        -1.22440
C          8.59931        20.69942        -1.22281
C          7.30955        21.32800        -0.66834
C          8.71680        23.27279         0.18478
C          7.39943        22.63387         0.02599
C          8.73047        24.76922         0.52028
C          7.46656        25.48077         0.57427
C          8.66295        27.61338         0.33399
C          7.43687        26.87156         0.45766
C          8.64322        29.04820         0.33479
C          7.39728        29.71603         0.45210
C         11.13802         3.53716        -0.17908
C          9.92729         4.17347        -0.41194
C         11.18249         6.43275        -0.67866
C          9.88607         5.60155        -0.79588
C         11.02055         7.84980        -0.37915
C          9.81109         8.49802        -0.68461
C         10.97975        10.67714        -0.53406
C          9.80057         9.95283        -0.76887
C         11.10499        12.04104        -1.02493
C          9.75823        12.79903        -1.24982
C         11.03546        14.92109        -1.35017
C          9.78511        14.25999        -1.23819
C         11.03287        16.37595        -1.71083
C          9.71646        17.07145        -1.59279
C         11.41013        19.47932        -1.74169
C          9.54855        18.43295        -1.88791
C         11.22195        20.76135        -1.11522
C          9.94230        21.36486        -0.91733
C         11.16108        23.36437        -0.06213
C          9.95031        22.65760        -0.32889
C         11.16770        24.79883         0.21087
C          9.95848        25.51478         0.28006
C         11.14793        27.65382         0.24715
C          9.92038        26.93217         0.27632
C         11.12277        29.09416         0.21778
C          9.87106        29.75759         0.24678
C         13.59532         3.59067         0.46057
C         12.43587         4.22151        -0.17253
C         13.53248         6.50874         0.38202
C         12.46854         5.74776        -0.32658
C         13.38452         7.88808         0.59491
C         12.10111         8.55343         0.31221
C         13.29400        10.91944         0.49661
C         12.05312        10.10669         0.26573
C         13.42581        12.25461        -0.13192
C         12.28796        12.86460        -0.72196
C         13.44939        15.05320        -0.58958
C         12.25309        14.24391        -1.04854
C         13.58732        16.41150        -1.20898
C         12.37291        17.14145        -1.66064
C         13.68893        19.23805        -1.09793
C         12.44145        18.60801        -1.43977
C         13.68570        20.66037        -0.79288
C         12.42061        21.35572        -0.61499
C         13.63226        23.30861         0.34786
C         12.39352        22.68006        -0.14749
C         13.62860        24.79000         0.57637
C         12.37851        25.52609         0.32037
C         13.62681        27.68019         0.30311
C         12.38245        26.94621         0.31442
C         13.59883        29.11294         0.19177
C         12.35270        29.79277         0.17383
C         15.99739         3.66851         0.94370
C         14.72304         4.33787         0.77110
C         15.75804         6.47530         1.51683
C         14.66622         5.77853         0.84227
C         15.72985         7.97494         1.61398
C         14.46774         8.69904         1.22874
C         15.83650        10.85962         0.76820
C         14.53304        10.20078         0.99672
C         15.89907        12.19931         0.33074
C         14.68280        12.93431        -0.05314
C         15.98442        14.99885        -0.49876
C         14.74626        14.28915        -0.44432
C         16.02852        16.34414        -0.85703
C         14.80516        17.07264        -1.13723
C         16.15059        19.22713        -1.53774
C         14.86774        18.51427        -1.19792
C         16.13918        20.70660        -1.14153
C         14.89146        21.32042        -0.63705
C         16.21600        23.38820         0.08126
C         14.95075        22.61353         0.06064
C         16.19980        24.81592         0.29743
C         14.92793        25.54852         0.53923
C         16.07465        27.72531         0.15412
C         14.87569        27.01140         0.31125
C         16.06252        29.15162         0.08406
C         14.82730        29.82070         0.11695
C         18.46295         3.72935         1.00953
C         17.16125         4.34689         1.18560
C         18.33451         6.55423         1.63742
C         17.10491         5.75497         1.64280
C         18.32085         7.94936         1.57574
C         17.04348         8.71878         1.66915
C         18.35927        10.80636         0.92230
C         17.06376        10.18451         1.22464
C         18.38259        12.16910         0.51457
C         17.15967        12.85984         0.24382
C         18.53861        14.86806        -0.42456
C         17.21687        14.35786         0.10300
C         18.59617        16.20294        -1.06857
C         17.32809        17.01439        -1.17007
C         18.61861        19.16908        -0.97039
C         17.41989        18.49538        -1.13087
C         18.67952        20.61054        -0.77424
C         17.42887        21.39620        -0.83131
C         18.67022        23.40981        -0.08324
C         17.41367        22.74171        -0.20881
C         18.66405        24.83045         0.29321
C         17.37343        25.53693         0.25060
C         18.64317        27.78051        -0.06188
C         17.34417        26.99336         0.00142
C         18.54188        29.24609         0.12990
C         17.31333        29.87312         0.10374
C         19.60711         4.40279         1.24588
C         20.82676         6.57269         1.41463
C         19.62480         5.79110         1.84138
C         20.77011         7.91626         1.25704
C         19.54622         8.66696         1.40372
C         20.78494        10.80939         1.12922
C         19.55989        10.09073         1.17457
C         20.81642        12.14641         0.77634
C         19.64651        12.84423         0.41390
C         20.99369        14.85364        -0.30969
C         19.70386        14.20309        -0.10239
C         21.10196        16.13697        -0.71248
C         19.91777        16.92356        -1.10353
C         21.12176        19.17991        -0.57704
C         19.92152        18.45052        -1.02533
C         21.09056        20.51339        -0.34727
C         19.86679        21.27806        -0.49043
C         21.08603        23.50055        -0.43344
C         19.87839        22.72980        -0.29340
C         21.12218        24.86242        -0.30021
C         19.98358        25.61395         0.22953
C         21.04226        27.87523         0.44182
C         19.93942        27.10938         0.19400
C         20.96081        29.31168         0.48165
C         19.77008        29.96826         0.34443
O          1.84577        14.76593         1.66476
O         13.67118        10.95894         1.91319
O          7.21424         9.17471        -2.37545
O          5.25990        21.25235         1.61922
O         16.80851        21.50526        -2.19174
O          4.07608         5.63805        -1.86870
O         11.60910         9.37615         1.43368
O          2.61620        26.04655         2.66607
O         11.80208        16.65850        -2.92797
O          4.37181        13.29785        -1.96688
O          7.72763        21.49140        -2.08269
O          8.87698        23.73772         1.57595
O         12.90374         4.90519        -1.41905
O         10.47534        19.08685        -2.69261
O         18.00143        27.29818        -1.29836
O         10.66198         5.99967        -1.96417
O          2.96628        22.58069         1.97568
O         16.20558         5.90882         2.79630
O         17.03269         9.75971         2.67095
O          3.42050        12.21457         1.30251
O         14.76036         8.37565         2.62972
O         14.29731        22.54592         1.39261
O         20.12346        17.72524        -2.29692
O         14.29352        25.18211         1.82059
O         10.55015        12.23799        -2.34699
O          5.65452        10.16559         0.66751
O          5.20357        16.39235        -2.35939
O         19.46189        25.11244         1.50707
O          1.55037        18.97767        -2.16475
O         17.89977        16.31885        -2.35299
O         19.72845         5.60548         3.30136
H         18.84441         5.32880         3.62656
O          4.53897        18.84317        -2.69218
H          4.85201        18.03963        -3.17560
O          5.35294        13.80884         1.34482
H          4.53990        13.40825         1.75595
O          5.01090        25.22342        -0.94568
H          4.30587        25.78194        -1.33425
O          1.83396         8.40552        -1.98558
H          0.91157         8.73765        -2.01497
O          1.94797        16.45367        -2.27266
H          1.62238        17.23788        -2.78137
O         16.18081        19.16934        -2.99351
H         16.71034        19.94519        -3.29512
O         13.08760        15.38306         0.83172
H         13.30537        14.59725         1.38064
O          6.24453        24.70148         2.45629
H          7.08398        24.28796         2.75962
O         17.18320        14.86864         1.50642
H         17.77172        14.29417         2.04314
H          1.45324         2.34073         0.90122
H         -0.65641         3.56764         1.41176
H         -0.79285         6.00829         1.11845
H         -0.83499         7.91602         0.94374
H         -0.92623        10.32249         0.78259
H         -1.01637        12.24609         0.14830
H         -1.05874        14.65921         0.11231
H         -1.02764        16.64926         0.42357
H         -1.20972        18.97079        -0.31188
H         -1.01695        21.09637        -0.96440
H         -0.91078        23.46296        -0.24516
H         -0.95415        24.95149         1.23855
H         -0.88664        27.39238         1.40315
H          0.34780        29.53990         1.21240
H          3.79660         2.36255         0.38848
H          2.48453        30.75896         1.01881
H          6.28403         2.40676         0.19593
H          4.90578        30.77741         0.69289
H          8.69069         2.44268         0.03832
H          7.37826        30.81603         0.45536
H         11.12314         2.49305         0.16968
H          9.84986        30.85746         0.23927
H         13.62033         2.49494         0.55526
H         12.34538        30.89180         0.12423
H         16.04385         2.59871         0.68887
H         14.80809        30.91974         0.07098
H         18.49182         2.69437         0.63562
H         17.27248        30.96953         0.19302
H         20.57749         3.90557         1.09752
H         21.77416         6.03442         1.26546
H         21.68442         8.44913         0.96269
H         21.72613        10.31684         1.40280
H         21.78862        12.65497         0.77159
H         21.91347        14.29439        -0.09669
H         22.09471        16.58592        -0.85521
H         22.06952        18.63074        -0.48989
H         22.00708        21.03284        -0.03500
H         21.98924        22.98728        -0.79373
H         22.01413        25.41792        -0.62542
H         22.01636        27.39881         0.62362
H         21.88382        29.88075         0.65870
H         19.72858        31.06504         0.41334
