         276
 CSIRO Nanostructure Databank - Neutral Graphene Oxide Data Set
C        -10.64959         0.23719         1.57051
C         -9.99586         1.14586         0.54855
C         -8.62231         0.50562         0.20123
C         -7.58370         1.42337        -0.40330
C         -6.29802         0.71617        -0.77949
C         -5.04413         1.14641        -0.04512
C         -3.75199         0.39373        -0.19957
C         -2.45054         1.00765         0.39224
C         -1.13628         0.35039        -0.10130
C          0.11769         1.16354        -0.20901
C          1.41056         0.54926        -0.68563
C          2.65044         1.35805        -0.77129
C          3.87531         0.68983        -1.30753
C          5.15848         1.42678        -1.09434
C          6.45254         0.58310        -1.17478
C          7.69434         1.38331        -0.70147
C          8.68591         0.72743         0.21391
C          9.70184         1.53820         1.04246
C         10.98098         0.70612         1.07094
C         -9.86793         2.57517         1.03948
C         -8.79564         3.35161         0.80140
C         -7.55364         2.79059         0.17702
C         -6.32542         3.22140         0.96622
C         -5.00151         2.52011         0.62812
C         -3.67581         3.22270         0.77262
C         -2.45539         2.56168         0.10944
C         -1.15623         3.28874         0.58273
C          0.03818         2.66342        -0.15050
C          1.27633         3.45117        -0.44745
C          2.60294         2.86186        -0.94950
C          3.84770         3.53733        -0.40158
C          5.14730         2.75303        -0.29930
C          6.37511         3.63150        -0.67890
C          7.61776         2.84885        -0.98469
C          8.84614         3.89739         0.66483
C          9.80060         2.90250         0.41971
C         -8.84981         4.86616         0.94169
C         -7.48612         5.55182         1.07020
C         -6.21906         4.74704         1.09111
C         -4.91430         5.41643         0.75660
C         -3.60389         4.72460         1.17594
C         -2.39875         5.46907         0.59383
C         -1.25081         4.79800         0.30929
C          0.03499         5.57108         0.21562
C          1.33172         4.88092        -0.04775
C          2.57868         5.61782        -0.33304
C          3.81054         4.91373        -0.21544
C          5.04485         5.64733         0.28825
C          6.35244         5.09284        -0.28371
C          7.59481         5.89781         0.01066
C          8.83801         5.18736         0.03026
C         -7.41600         6.98225         0.66869
C         -6.23451         7.63342         0.50040
C         -4.94028         6.89074         0.55050
C         -3.71475         7.67927         0.89504
C         -2.35995         6.95248         0.97907
C         -1.31862         7.73353         0.19327
C         -0.06794         7.01800        -0.15018
C          1.18688         7.79672        -0.42178
C          2.50583         7.07103        -0.51511
C          3.76904         7.85515        -0.40119
C          5.02954         7.14338        -0.03360
C          6.19605         7.94473         0.51327
C          7.50119         7.26109         0.18812
C         -6.16203         9.04186         0.12412
C         -5.00423         9.74295         0.12574
C         -3.74514         9.16135         0.65009
C         -2.45862         9.88923         0.49549
C         -1.28281         9.22136         0.31579
C          0.00472         9.88666         0.22504
C          1.18677         9.24599        -0.07134
C          2.45718         9.94463        -0.06332
C          3.67213         9.31969        -0.19327
C          4.94320        10.02875        -0.12855
C          6.11633         9.40044         0.11313
C        -10.39403        -1.08049         1.57341
C         -9.62256        -1.72724         0.47606
C         -8.78356        -0.87596        -0.44202
C         -7.72619        -1.43580        -1.47527
C         -6.34262        -0.68866        -1.34237
C         -5.00555        -1.42008        -1.56608
C         -3.66608        -0.76683        -1.15294
C         -2.43031        -1.52636        -1.26791
C         -1.13761        -1.09463        -0.61585
C          0.08172        -1.46940        -1.51988
C          1.41550        -0.69155        -1.56759
C          2.67176        -1.51020        -1.35216
C          3.84995        -0.79971        -1.28382
C          5.02918        -1.49714        -0.73716
C          6.30844        -0.78472        -0.49303
C          7.33746        -1.43010         0.11189
C          8.53891        -0.71490         0.65982
C          9.85735        -1.43190         0.30383
C         11.02551        -0.61700         0.83776
C         -9.39832        -3.18088         0.47634
C         -8.41108        -3.71128        -0.28035
C         -7.64819        -2.99553        -1.38681
C         -6.28021        -3.63013        -1.73142
C         -4.98379        -2.90602        -1.63847
C         -3.80133        -3.58389        -1.69960
C         -2.48624        -2.85911        -1.99044
C         -1.23492        -3.59222        -1.54000
C          0.05358        -2.96401        -1.82138
C          1.34668        -3.73439        -1.67173
C          2.66446        -2.94733        -1.87781
C          3.98048        -3.82145        -1.50967
C          4.99597        -2.98714        -0.67221
C          6.28308        -3.67487        -0.32932
C          7.24372        -2.88099         0.55815
C          8.59182        -3.59602         0.65739
C          9.78823        -2.87560         0.72184
C         -8.67473        -4.84539        -1.25673
C         -7.51659        -5.79913        -1.30536
C         -6.26863        -5.15067        -1.78513
C         -4.97937        -5.89525        -1.60930
C         -3.73605        -5.06928        -1.59699
C         -2.58542        -5.50447        -0.73379
C         -1.24502        -5.05378        -1.23880
C         -0.05299        -5.59078        -0.48193
C          1.27533        -5.03114        -0.91018
C          2.48972        -5.45871        -0.08581
C          3.80038        -5.11571        -0.74992
C          5.02519        -5.99779        -0.61077
C          6.29253        -5.15380        -0.22449
C          7.29007        -5.76287         0.78241
C          8.57518        -4.99616         0.73149
C         -7.53146        -7.02841        -0.75004
C         -6.33766        -7.96397        -0.78339
C         -5.00793        -7.21186        -0.86215
C         -3.90233        -7.52951         0.09345
C         -2.70304        -6.63640         0.21104
C         -1.45558        -7.22215         0.88472
C         -0.15760        -6.74140         0.24322
C          1.05503        -7.56376         0.46775
C          2.39121        -6.95171         0.20838
C          3.58435        -7.54543         0.87511
C          4.90316        -7.14708         0.37778
C          6.01111        -7.83891         0.80591
C          7.38933        -7.27905         0.51156
C         -6.35051        -8.98150         0.34524
C         -5.33255        -9.28679         1.16148
C         -4.04577        -8.50616         1.25054
C         -2.77478        -9.32723         1.27955
C         -1.54216        -8.72964         1.09136
C         -0.33540        -9.44701         1.32053
C          0.94792        -8.86030         1.19635
C          2.09820        -9.51552         1.61606
C          3.42384        -8.87565         1.60315
C          4.65509        -9.64893         1.78451
C          5.86779        -9.09827         1.49998
O         -0.21040         0.47450         1.02559
O          3.44561        -7.56569         2.33003
O          2.32223         0.66585         0.46794
O         -4.22981         2.45175         1.86790
O         -6.28657         0.50399        -2.20708
O          1.74408         7.47621        -1.72969
O         -6.79719         5.25053         2.33195
O         -7.74909         2.60949        -1.26440
O         -1.10771         7.24740        -1.16573
O         -3.93899        -8.13928        -1.23861
O          0.21894         3.25102        -1.47443
O         -4.68451         0.07471         0.89095
O          6.20329         4.67868        -1.68101
O        -10.11314        -1.23620        -0.84384
O          8.93718         0.83534        -1.20800
O         -3.35553         4.77741         2.55858
O         -4.22896        -0.67906        -2.53044
O         -6.35594        -4.37553        -2.99570
O          4.76148         7.44471        -1.41994
O          6.90148        -4.48579        -1.36198
O         -0.16159        -1.93325        -2.85910
O         -4.80054         5.96301        -0.59709
O          2.71948        -2.61443        -3.23451
O          1.43072        -5.02114        -2.36499
O          4.53054        -2.27744         0.50065
O          1.79398        -7.75723        -0.82690
O         -4.07981        -5.86989        -2.75542
O         -3.93237         8.58248         2.00903
O          4.51190         1.42919        -2.39915
O         -8.56590        -3.78829        -2.29282
O          0.91447         5.24065         1.33850
O         -2.91107        -5.25415         0.67542
O         -7.95415         0.19240         1.46850
H         -7.68503         1.03241         1.92026
O          5.06113         5.42448         1.71511
H          5.49379         6.20677         2.14574
O         -8.21574        -1.13919        -2.77668
H         -7.87216        -0.25859        -3.04827
O         -4.09996        -7.74401         2.48645
H         -3.20083        -7.36665         2.65656
O          7.78609        -7.52706        -0.83495
H          7.05030        -7.24553        -1.43534
O         -9.51019         5.37838        -0.22873
H         -9.10311         4.96828        -1.02035
O        -10.82746         1.23372        -0.62323
H        -10.36124         1.77525        -1.29328
O         -1.93029         6.94550         2.34746
H         -2.47167         6.22872         2.79927
O          8.39347        -0.74886         2.10550
H          7.84131        -1.53796         2.34890
O          2.37688        -4.75262         1.18427
H          2.94712        -5.20300         1.84547
O         -2.52450        -2.72263        -3.43372
H         -1.79457        -2.12759        -3.72058
O          5.33580        -6.56971        -1.91004
H          5.28652        -5.81152        -2.55301
O          6.70423        -5.62142         2.10202
H          6.72542        -4.66187         2.34493
O         -2.57685         2.68087        -1.31771
H         -2.14186         3.50685        -1.62343
O         -1.01070         3.13090         1.98856
H         -1.75254         3.62248         2.43295
O         -2.42312         0.70519         1.77831
H         -3.29453         0.95075         2.17180
O          6.06884         7.91367         1.98529
H          6.87245         8.32749         2.36638
O         -1.44076        -6.68123         2.24114
H         -1.67404        -5.72530         2.16406
O          7.87196         3.71502         1.60500
H          8.10606         2.91623         2.14966
O          6.68407        -2.86595         1.91639
H          5.74639        -2.54196         1.80878
O          5.37804         2.37636         1.07860
H          5.20802         3.16646         1.64380
O          9.25795         1.67890         2.41151
H          9.01588         0.77469         2.73692
O          2.62568         3.11906        -2.37155
H          1.72015         2.96071        -2.72330
O          1.52081        -0.16277        -2.90937
H          1.84958        -0.92794        -3.45948
O          4.64376        -4.09157        -2.75206
H          4.08237        -3.59925        -3.42946
O          9.96373        -1.46892        -1.14105
H         10.78447        -1.94547        -1.38200
O         -6.70781         2.69389         2.26774
H         -5.96819         2.89783         2.88678
O         -1.15047        -5.61558        -2.58244
H         -0.21536        -5.49076        -2.89826
O         -6.45936        -8.72448        -2.01146
H         -5.55929        -9.04864        -2.23756
O          6.70141         0.27036        -2.54582
H          5.89234         0.51731        -3.06188
O          8.24621         3.26120        -2.05997
H          7.84909         4.13359        -2.33063
O         -0.99025        -1.94104         0.56252
H         -0.69718        -1.36372         1.30962
H         11.99044        -1.14083         0.94323
H         11.89379         1.22251         1.40770
H         10.53406         3.06377        -0.38142
H          9.78200         5.69256        -0.20995
H          8.42760         7.82506         0.38066
H          7.04910         9.98439         0.14789
H          4.93099        11.11776        -0.29015
H          2.43463        11.03101         0.11493
H          0.02813        10.96819         0.43238
H         -2.47057        10.98948         0.54767
H         -4.99166        10.79123        -0.20808
H         -7.09637         9.53068        -0.19092
H         -8.36702         7.52128         0.54389
H         -9.48342         5.14875         1.81937
H        -10.78374         3.03185         1.44857
H        -11.29093         0.68739         2.34282
H        -10.83588        -1.73751         2.33828
H        -10.14824        -3.84070         0.94191
H         -9.67565        -5.33125        -1.22706
H         -8.47976        -7.43752        -0.36690
H         -7.26592        -9.59253         0.39750
H         -5.45879       -10.09794         1.89609
H         -2.82133       -10.40203         1.51522
H         -0.40682       -10.48248         1.68766
H          2.01606       -10.53054         2.03447
H          4.58183       -10.68102         2.15743
H          6.78447        -9.67270         1.69980
H          8.14758        -7.74719         1.18673
H          9.52898        -5.54449         0.69631
H         10.72952        -3.43229         0.86007
