         661
 CSIRO Nanostructure Databank - Neutral Graphene Oxide Data Set
C          5.85083        31.63819        -0.04920
C          5.84807        32.99549         0.03362
C          8.24774        27.27999        -0.42343
C          8.20485        28.69704        -0.54838
C          7.06084        29.45339        -0.31558
C          8.19446        31.59077        -0.74483
C          7.05013        30.88907        -0.40534
C          8.16439        33.07855        -0.99099
C          7.01380        33.79287        -0.30375
C          8.23596        35.95817        -0.42429
C          7.03828        35.14640        -0.12229
C          8.34945        37.37648        -0.03068
C         10.92244        23.09904        -0.10092
C         10.33239        24.30325         0.28772
C          9.37259        25.11780        -0.35828
C         10.71155        27.29977        -0.16653
C          9.44000        26.55014        -0.26054
C         10.75552        28.57874        -1.00247
C          9.44073        29.36537        -1.01639
C         10.71872        31.60299        -1.00251
C          9.43577        30.87527        -1.07952
C         10.69999        33.02960        -0.85398
C          9.50192        33.72550        -0.71884
C         10.79368        35.85135        -0.18046
C          9.51903        35.19697        -0.65625
C         10.81331        37.36030        -0.32574
C          9.54206        38.07254        -0.13211
C         10.78346        40.22285        -0.11355
C          9.59103        39.50954        -0.05621
C         10.82018        41.64070        -0.12397
C         13.58718        19.16905         0.31036
C         13.69175        20.47956        -0.13518
C         12.49042        21.32018        -0.23159
C         13.06064        23.27977         1.42687
C         12.18281        22.53915         0.35014
C         13.14462        24.76020         1.06808
C         12.01593        25.52108         0.99209
C         13.18954        27.48991         0.09600
C         11.91551        26.80416         0.31421
C         13.17588        28.86069        -0.40999
C         11.96085        29.47041        -0.74692
C         13.17949        31.62771        -1.04915
C         11.93537        30.88867        -0.97269
C         13.19055        33.03504        -1.15373
C         11.96251        33.77172        -0.93290
C         13.19942        35.92849        -0.98883
C         11.98780        35.13799        -0.74592
C         13.30356        37.25814        -0.27430
C         12.00100        38.02656        -0.33613
C         13.30032        40.17895        -0.51740
C         12.08861        39.48374         0.05561
C         13.21818        41.64642        -0.88199
C         12.01098        42.36203        -0.31332
C         13.27248        44.49338        -0.18626
C         12.05925        43.75321        -0.13156
C         13.29894        45.88710         0.03742
C         15.75159        14.79501         0.91286
C         15.69601        16.12332         1.29130
C         14.64098        16.99563         0.80911
C         15.56453        19.01186         1.98364
C         14.65463        18.37158         0.90260
C         15.70034        20.52780         1.89278
C         14.51330        21.30745         2.06144
C         15.67831        23.28582         1.29255
C         14.45761        22.64845         1.59488
C         15.70951        24.75799         1.11978
C         14.41229        25.49356         0.98800
C         15.66590        27.56325         0.39692
C         14.37120        26.86071         0.43617
C         15.66606        28.97336        -0.13112
C         14.39323        29.58458        -0.55073
C         15.68191        31.63831        -1.11576
C         14.42194        30.92723        -0.95047
C         15.64910        33.04736        -1.35365
C         14.43611        33.72731        -1.31851
C         15.75225        35.91019        -1.23364
C         14.45464        35.20019        -1.35038
C         15.70011        37.35962        -1.02476
C         14.53458        38.03821        -0.69232
C         15.68310        40.23550        -1.25774
C         14.45989        39.49363        -0.74302
C         15.71890        41.70860        -0.87909
C         14.51981        42.38760        -0.65426
C         15.74683        44.49405        -0.32351
C         14.51504        43.78350        -0.39783
C         15.75174        45.90765        -0.11072
C         14.50462        46.62282         0.07124
C         15.71096        48.76751         0.43268
C         14.52154        48.01671         0.36125
C         15.73971        50.13525         0.76192
C         18.27373        10.53093        -0.00345
C         18.32622        12.03376         0.11438
C         17.00681        12.73441         0.37324
C         18.20104        14.58411         1.48358
C         16.94867        13.96929         0.95779
C         18.20094        16.04544         1.79747
C         16.89329        16.77768         1.87503
C         18.14786        18.92366         1.57454
C         16.90024        18.25787         2.06812
C         18.10823        20.37285         1.21217
C         16.89102        21.17706         1.51016
C         18.16885        23.28376         0.96583
C         16.91637        22.58121         1.28906
C         18.16997        24.64839         0.69479
C         16.95407        25.42454         0.67278
C         18.18272        27.54407         0.28356
C         16.92444        26.77451         0.38230
C         18.16024        28.99264        -0.11956
C         16.91447        29.49590        -0.80729
C         18.16661        31.72586        -1.06394
C         16.91815        30.98909        -1.01690
C         18.18267        33.08552        -1.31881
C         16.91144        33.75232        -1.79910
C         18.15920        35.97761        -1.92293
C         16.90672        35.23842        -1.52416
C         18.09930        37.41233        -1.50620
C         16.96031        38.07357        -1.15671
C         18.14566        40.29633        -1.31393
C         16.95958        39.54057        -0.75757
C         18.20264        41.74081        -1.11035
C         16.96082        42.41114        -0.83988
C         18.22298        44.48548        -0.34299
C         16.97952        43.80000        -0.51638
C         18.19499        45.87111        -0.01450
C         16.98163        46.58814        -0.00535
C         18.21037        48.67850         0.66413
C         16.99284        48.10217        -0.01717
C         18.21622        50.11687         1.04302
C         16.94644        50.88316         0.95192
C         18.23139        52.96846         1.38169
C         16.98666        52.24820         1.19681
C         18.26641        54.34415         1.51569
C         20.66302         6.40678        -1.15317
C         20.63865         7.68432        -0.56589
C         19.45815         8.41239        -0.35110
C         20.68926        10.43300         0.50336
C         19.43560         9.77983         0.08361
C         20.69777        11.73896         0.90524
C         19.38311        12.43994         1.14637
C         20.69717        14.62518         1.43654
C         19.49706        13.93037         1.23287
C         20.67884        16.04250         1.63560
C         19.46874        16.80252         1.68987
C         20.70352        19.00247         1.84453
C         19.43864        18.19562         1.66568
C         20.72733        20.35363         1.14934
C         19.41317        21.08473         0.96105
C         20.67477        23.19287         0.89680
C         19.43415        22.55392         0.93995
C         20.72146        24.60946         0.46716
C         19.40498        25.30157         0.12445
C         20.62407        27.50353         0.21552
C         19.45816        26.80779         0.29755
C         20.63128        28.86728        -0.37607
C         19.41450        29.67179        -0.49269
C         20.69728        31.72950        -0.96154
C         19.42975        31.00558        -0.84147
C         20.70913        33.15408        -1.13330
C         19.41438        33.90898        -0.97650
C         20.67623        35.98767        -1.62926
C         19.47979        35.31173        -1.54176
C         20.70524        37.49228        -1.65968
C         19.36665        38.16270        -1.60162
C         21.00772        40.45067        -1.62830
C         19.12001        39.58078        -1.93113
C         20.73991        41.66353        -0.79551
C         19.43104        42.42126        -0.97252
C         20.72976        44.43926        -0.31244
C         19.46505        43.78088        -0.53630
C         20.76897        45.79222         0.25972
C         19.44795        46.54902         0.36658
C         20.76041        48.75164         0.28335
C         19.48445        47.99159         0.44940
C         20.75115        50.13938         0.90199
C         19.50798        50.84116         1.11515
C         20.73756        52.86047         1.74992
C         19.47971        52.20243         1.36989
C         20.71651        54.35120         2.00727
C         19.56963        55.07999         1.26838
C         20.77553        57.15983         2.09730
C         19.64978        56.55019         1.65989
C         20.79217        58.61583         2.50941
C         23.09565         3.85213        -2.44927
C         21.89233         4.45566        -2.05445
C         23.14355         6.42459        -1.32095
C         21.88392         5.74596        -1.48513
C         23.18020         7.72090        -0.75388
C         21.93932         8.27184        -0.15738
C         23.19883        10.43769         0.28697
C         21.95819         9.66591         0.41425
C         23.28093        11.73869         0.90942
C         21.93934        12.44523         1.29412
C         23.21312        14.56688         1.44644
C         21.97566        13.91120         1.39622
C         23.25417        16.02618         1.69887
C         21.95579        16.75980         1.79853
C         23.24128        18.95529         1.38221
C         21.94705        18.21839         1.46958
C         23.23800        20.43631         1.51829
C         21.97523        21.13934         1.32799
C         23.14406        23.31199         1.56466
C         21.92151        22.51895         1.20616
C         23.18134        24.78885         1.29191
C         21.97036        25.40148         0.64057
C         23.18492        27.58123         0.47061
C         21.87287        26.90018         0.82901
C         23.18071        28.95256        -0.11345
C         21.92040        29.58763        -0.59954
C         23.18480        31.78853        -0.61275
C         21.89968        31.04044        -0.79710
C         23.15226        33.15469        -1.24737
C         21.94423        33.85531        -1.30501
C         23.16420        36.01197        -1.62449
C         21.96662        35.30877        -1.53343
C         23.24982        37.45267        -1.73651
C         22.01148        38.24833        -2.09632
C         23.13204        40.14165        -0.45422
C         22.04487        39.61797        -1.40758
C         23.23921        41.66270        -0.69299
C         22.00841        42.45248        -1.09268
C         23.20782        44.53715        -0.50218
C         21.97312        43.84455        -0.56587
C         23.19477        45.95620        -0.21985
C         22.01768        46.56180         0.17383
C         23.24598        48.75993         0.37068
C         22.00742        47.96576         0.73095
C         23.21507        50.11812         0.60104
C         21.98279        50.77084         1.00499
C         23.31962        52.89883         1.51749
C         22.04748        52.12957         1.56450
C         23.33392        54.26981         1.86086
C         22.05982        55.07021         1.71683
C         23.33431        57.17020         2.07148
C         22.06846        56.42317         2.43695
C         23.31679        58.58794         2.02915
C         22.09330        59.31810         2.16165
C         23.32834        61.40114         1.84844
C         22.11635        60.70106         2.06635
C         24.31024         4.51399        -2.32252
C         25.58066         6.54096        -1.64602
C         24.36232         5.82655        -1.77131
C         25.60686         7.86216        -1.16875
C         24.37067         8.45619        -0.75510
C         25.67774        10.65215        -0.33999
C         24.33555         9.88833        -0.42506
C         25.71179        11.94011         0.36103
C         24.48498        12.56620         0.76816
C         25.70545        14.69143         0.90597
C         24.45151        13.90249         1.15912
C         25.73388        16.09541         1.41714
C         24.50705        16.79480         1.46496
C         25.73146        18.89828         1.63806
C         24.51260        18.20150         1.53595
C         25.70171        20.35095         1.87713
C         24.43293        21.09790         1.67750
C         25.77483        23.32408         1.66653
C         24.45112        22.57854         1.79623
C         25.81068        24.86049         1.44476
C         24.46802        25.49226         1.00572
C         25.67550        27.46793         0.07302
C         24.42803        26.75117         0.47039
C         25.62421        28.69443        -0.80096
C         24.37441        29.49573        -0.81579
C         25.63380        31.60475        -0.91870
C         24.42451        30.97051        -0.91697
C         25.68129        33.06209        -1.16910
C         24.44136        33.82579        -1.50088
C         25.40331        35.93041        -0.40475
C         24.53015        35.35496        -1.57001
C         25.47830        37.49397        -0.54399
C         24.44551        38.10709        -1.48010
C         25.69044        40.25285        -0.77295
C         24.45689        39.38826        -0.64921
C         25.68968        41.66848        -0.74705
C         24.42328        42.36733        -0.69823
C         25.66917        44.52110        -0.72915
C         24.43372        43.82509        -0.67658
C         25.61985        45.99706        -0.86021
C         24.41657        46.72488        -0.38723
C         25.63843        48.90257        -0.35414
C         24.42095        48.08772        -0.13733
C         25.70881        50.23549         0.25745
C         24.41316        50.99041         0.30695
C         25.74295        52.94022         1.18124
C         24.49709        52.25987         1.11049
C         25.76397        54.31616         1.55513
C         24.54580        55.00064         1.81738
C         25.77372        57.16631         1.75585
C         24.52888        56.45345         1.90632
C         25.75645        58.57758         1.72552
C         24.54953        59.29688         1.82210
C         24.52149        60.72193         1.73795
C         26.85117         8.56968        -0.96696
C         28.13579        10.49499        -0.04398
C         26.91532         9.86321        -0.47268
C         28.16337        11.77503         0.47414
C         26.94974        12.53673         0.63727
C         28.18235        14.56386         1.29741
C         26.98614        13.91846         1.06139
C         28.21588        15.99053         1.80199
C         26.95175        16.77549         1.53834
C         28.22479        18.90373         1.50135
C         26.97110        18.19385         1.64079
C         28.24592        20.30411         1.40818
C         27.04982        21.09758         1.77798
C         28.14903        23.09285         0.87616
C         27.01687        22.52757         1.41959
C         28.08476        24.44862         0.31276
C         26.92413        25.28928         0.51966
C         28.18617        27.17744        -0.68953
C         26.96150        26.69055         0.09581
C         28.21237        28.69384        -0.89944
C         26.91027        29.43938        -1.03120
C         28.09674        31.60626        -0.81559
C         26.89769        30.90736        -0.90252
C         28.06943        33.06646        -0.63890
C         26.89602        33.77159        -0.73587
C         28.09601        35.97663        -0.57232
C         26.79777        35.22854        -0.42733
C         28.05459        37.39149        -1.09502
C         26.90454        38.12503        -0.43052
C         28.14323        40.27630        -0.85319
C         26.90665        39.57913        -0.81466
C         28.13674        41.68321        -0.77476
C         26.91576        42.39279        -0.76053
C         28.16778        44.56507        -0.84640
C         26.91396        43.84986        -0.77923
C         28.20166        45.99989        -0.84549
C         26.92874        46.74210        -0.96641
C         28.19897        48.85803        -0.29933
C         26.93857        48.21687        -0.71270
C         28.18097        50.18961         0.14983
C         26.93111        50.88732         0.40413
C         28.20964        52.94433         0.97118
C         26.96130        52.26022         0.84753
C         28.21349        54.32515         1.28299
C         27.01233        55.03903         1.51161
C         26.99027        56.44594         1.63038
C         29.46055        12.35936         0.99585
C         30.62762        14.56002         1.20585
C         29.44437        13.86674         1.16753
C         30.67821        16.00999         1.26740
C         29.46787        16.73537         1.41839
C         30.67870        18.81871         1.06818
C         29.46402        18.14507         1.32263
C         30.65748        20.23715         0.58363
C         29.42094        20.99541         0.98526
C         30.66445        23.08191         0.57360
C         29.40651        22.37056         0.76556
C         30.67658        24.45533         0.41073
C         29.45160        25.15647         0.03968
C         30.66345        27.38857        -0.08488
C         29.37134        26.67151         0.15488
C         30.66234        28.77665        -0.26086
C         29.41916        29.48174        -0.58624
C         30.54519        31.65894        -0.36781
C         29.33748        30.86185        -0.66874
C         30.52242        33.05703        -0.95826
C         29.35780        33.79866        -0.30603
C         30.54765        35.94565        -0.81928
C         29.34168        35.23388        -0.76791
C         30.56755        37.38908        -0.86115
C         29.38404        38.12220        -0.93729
C         30.62338        40.26740        -1.05207
C         29.39429        39.54651        -0.94128
C         30.65650        41.65370        -0.86785
C         29.41528        42.39010        -0.42356
C         30.64105        44.52849        -0.81862
C         29.41412        43.85822        -0.77944
C         30.68980        46.01369        -1.10911
C         29.40274        46.72569        -0.74963
C         30.65385        48.83681        -0.26456
C         29.41850        48.12841        -0.45763
C         30.64260        50.16123         0.12628
C         29.42487        50.87752         0.36955
C         29.42396        52.22742         0.74678
C         31.89445        16.70120         1.13863
C         33.14544        18.84796         0.96304
C         31.92000        18.11781         1.05143
C         33.17993        20.26834         0.91923
C         31.94246        20.99517         0.82389
C         33.17898        23.11963         0.72858
C         31.93740        22.38553         0.73772
C         33.21558        24.53212         0.60076
C         31.91358        25.23533         0.63530
C         33.15800        27.41974         0.24385
C         31.87762        26.73154         0.40562
C         33.14230        28.84193         0.10772
C         31.88122        29.49354        -0.06385
C         33.08650        31.72374         0.02626
C         31.81390        30.95197        -0.03279
C         33.11465        33.09391        -0.55184
C         31.83999        33.80953        -0.85595
C         32.97489        35.98790        -0.32354
C         31.79878        35.27066        -0.72086
C         33.12492        37.35779        -0.58279
C         31.88992        38.04237        -1.04731
C         33.19744        40.28406        -1.41998
C         31.87872        39.52309        -1.33427
C         33.12931        41.71526        -0.95414
C         31.89754        42.38130        -0.85210
C         33.11848        44.51438        -0.60150
C         31.87503        43.81385        -0.73317
C         33.07525        45.95820        -0.40402
C         31.94104        46.67663        -0.58237
C         31.97307        48.18255        -0.61774
C         34.39592        20.99726         0.96113
C         35.62770        23.16234         0.91988
C         34.42058        22.41045         0.85952
C         35.69074        24.55845         0.71414
C         34.43115        25.25311         0.47619
C         35.50476        27.45643        -0.12016
C         34.36442        26.69262         0.25203
C         35.61028        28.86840         0.07264
C         34.37245        29.55771         0.24114
C         35.66627        31.77239         0.28661
C         34.36564        31.02647         0.35685
C         35.62329        33.18408        -0.28953
C         34.28409        33.87028        -0.08408
C         35.94856        36.25346         0.09494
C         34.05842        35.17308         0.21974
C         35.73688        37.49708        -0.43748
C         34.38162        38.19756        -0.21703
C         35.62057        40.26359        -1.00583
C         34.40619        39.56024        -0.87397
C         35.57754        41.69349        -1.06383
C         34.36864        42.41682        -0.89180
C         34.32914        43.82791        -0.66224
C         36.96412        25.21843         0.92174
C         38.25939        27.46011         0.68543
C         37.32321        26.47106         0.37311
C         38.16155        28.83045         0.16434
C         36.88565        29.51268         0.02846
C         38.10614        31.75411        -0.34933
C         36.92909        30.99830         0.11005
C         38.12004        33.15024        -0.38765
C         36.93478        33.95513        -0.13790
C         38.21180        36.02306        -0.73219
C         37.02890        35.35338        -0.22545
C         38.13847        37.38709        -1.03788
C         36.92552        38.16520        -0.93708
C         36.87577        39.55188        -1.08178
C         39.31516        29.58299        -0.04932
C         40.56855        31.69317        -0.73006
C         39.28112        30.91073        -0.77598
C         40.58185        33.04331        -0.76716
C         39.36655        33.84738        -0.68895
C         39.39468        35.21460        -0.88730
O         20.10048        45.89361         1.57982
O          9.27864        30.03664        -2.30804
O         13.63060        35.86821        -2.38653
O         10.82603        24.94581         1.43560
O         26.18128        48.94226        -1.73582
O         22.68418        16.41018         3.02826
O         30.91516        31.51736         1.02699
O         26.16219        46.41233        -2.17203
O         24.84573        10.72000        -1.54237
O         25.17739        23.03647         2.97498
O         22.04056         8.47340         1.29959
O         22.73431        11.74730         2.28664
O         18.18206        15.04942         2.88794
O         16.90689        17.40337         3.23729
O         36.47919        31.54716         1.45341
O         36.51973        26.81493        -0.77230
O         34.99777        35.81411         1.02381
O         18.16192        28.65579         1.29004
O         28.71906        24.50599        -1.01206
O         15.70068        28.74607         1.29864
O         27.65745        29.01750        -2.22588
O         22.49479        18.52018         0.15954
O         20.14081        20.46549        -0.16181
O          8.81453        35.78004        -1.80211
O         21.68993        24.84268        -0.66465
O         21.39810        52.18800         2.89150
O         31.74445        26.15112         1.78995
O         33.56061        31.65445         1.41625
O         22.91698        24.29969         2.63546
O         25.25511        33.24756        -2.59894
O         20.11302        40.21935        -2.68801
O         26.60024        27.64940         1.17442
O         31.84664        38.57682        -2.46135
O         25.68906        14.91402        -0.64467
O         27.53854        35.64588         0.77122
O         15.13283        25.44047         2.30249
O         21.33857        28.80683        -1.70402
O         20.19933        37.99362        -0.36354
O         17.83144        19.36330         0.16938
O         23.35286        28.79931         1.32042
O         24.75849        28.66599        -1.97378
O         26.46280        20.74182         3.06358
O         18.07174        49.05615         2.08738
O         24.76277        38.38573         0.50104
O         32.75087        33.28487        -1.95806
O         30.79100        46.15742        -2.57938
H         29.97704        45.77154        -2.96990
O         13.03445        41.65139        -2.35079
H         12.85089        42.57724        -2.61927
O         12.33213        23.14335         2.65845
H         12.74815        23.73140         3.32183
O         35.60584        32.90943        -1.74542
H         35.09421        33.61468        -2.19884
O         22.77419        39.97257         0.92918
H         22.95755        39.03797         1.16872
O         10.95746        28.09410        -2.36787
H         10.57028        28.78001        -2.96276
O         28.27131        15.85640         3.27086
H         28.33157        16.76004         3.64830
O          7.94286        33.24117        -2.43333
H          8.11162        34.19670        -2.62875
O         30.55762        20.12375        -0.89373
H         31.35077        19.63183        -1.19725
O         29.56575        33.81356         1.12075
H         28.86849        34.39742         1.50365
O         12.32864        39.44020         1.52171
H         11.46903        39.23691         1.95020
O         29.06643        26.95278         1.54712
H         29.88340        26.77478         2.07203
O         19.27486        34.14079         0.49035
H         19.91258        34.84447         0.74048
O         15.66734        40.16293        -2.70178
H         14.81222        40.55208        -2.99770
O         18.88245        11.98224         2.43111
H         19.42666        12.38529         3.13999
O         34.24892        38.47557         1.21613
H         34.41585        37.62198         1.68056
O         28.22029        26.59135        -1.99152
H         27.85546        27.25779        -2.62278
O         13.40286        20.79498         2.61189
H         13.58671        19.88792         2.96011
O         19.69948        54.98764        -0.17545
H         20.41025        55.61248        -0.44959
O         20.79666        19.32053         3.26544
H         20.84203        18.47992         3.77048
O         21.98847        47.83721         2.17289
H         21.25962        47.20610         2.39535
O         24.43101        15.54557        -0.96437
H         24.70460        16.42931        -1.31231
O         21.68992        27.05516         2.25886
H         22.06659        27.92880         2.51431
O         16.94359        39.62308         0.68341
H         17.79885        39.28056         1.01894
O         22.05973        42.56306        -2.55570
H         22.83973        43.11029        -2.78979
O         30.19250        32.93699        -2.35765
H         31.03955        32.85746        -2.85283
O         23.30348        32.05609         0.85041
H         22.48975        32.52799         1.13201
O         32.30367        48.55895        -1.97308
H         31.79384        47.96228        -2.56839
O         33.48978        40.43653        -2.85734
H         33.12054        39.63126        -3.29430
O         26.07971        25.43763         2.74457
H         25.51371        24.95368         3.39016
O         27.22956        38.14161         0.97950
H         26.44263        38.51083         1.44375
O         21.99720        38.40233        -3.52506
H         21.31415        39.07695        -3.74525
O         25.23038        35.73934        -2.76711
H         25.40914        34.91656        -3.28435
O         18.16397        35.99318        -3.39260
H         17.91709        35.07899        -3.68653
O         18.81632        12.53388        -1.17289
H         18.18273        12.25673        -1.86742
O         20.63750        58.66111         3.94304
H         21.27831        58.00661         4.31279
O         24.21251        51.47002        -1.08433
H         24.49350        50.74659        -1.68819
O         17.17421        48.47498        -1.42930
H         16.38601        48.16168        -1.92213
O         22.13544        56.29348         3.87864
H         21.37701        55.70641         4.13436
O         20.69236        41.27528         0.59282
H         20.79579        42.07796         1.14500
O         20.37505        54.47407         3.41538
H         20.70789        53.65642         3.85687
O         27.77377        37.32446        -2.51097
H         28.56257        36.97323        -2.97436
O         29.46143        42.35337         1.05939
H         30.30558        42.77275         1.33256
O         24.78355        35.57401         0.83031
H         25.40706        35.81095         1.55096
O         10.84129        35.62577         1.26946
H         11.73510        35.93205         1.56406
O         14.84176        20.99009        -0.63396
H         15.57014        20.33638        -0.56377
O         16.90944        28.87346        -2.13356
H         17.60325        29.30124        -2.67934
O         19.21541        25.17348        -1.32020
H         20.11304        25.21597        -1.72724
O         16.92083        33.59540        -3.28297
H         16.02882        33.85166        -3.60581
O         14.83993        18.73249         3.21162
H         15.31178        17.97455         3.64931
O         39.05495        30.57790        -2.20059
H         38.98289        31.42553        -2.68931
O         22.12598        55.44245         0.29974
H         22.44200        54.66908        -0.21455
O         30.56711        11.94638         0.18865
H         30.43860        12.30278        -0.71405
O         20.89800        48.93327        -1.17051
H         20.07465        49.34704        -1.50778
O         13.46626        36.91638         1.14788
H         13.41308        37.77593         1.63630
H          4.94575        31.07008         0.21136
H          4.94383        33.52326         0.37331
H          7.29207        26.73572        -0.37463
H          6.13812        28.94322        -0.00013
H          6.17190        35.65417         0.33078
H          7.42455        37.92106         0.21444
H         10.47008        22.59971        -0.97398
H          8.56147        24.67898        -0.96044
H          8.63838        40.06183        -0.05596
H          9.88341        42.19522         0.04748
H         12.56408        18.77811         0.43630
H         11.65655        20.82891        -0.76584
H         11.13692        44.28031         0.15864
H         12.34860        46.41458         0.20999
H         14.87419        14.36428         0.40423
H         13.87125        16.52511         0.17665
H         13.56601        48.51198         0.59401
H         14.78108        50.65657         0.91349
H         17.34341        10.05017        -0.34625
H         16.09446        12.30077        -0.06895
H         16.05122        52.82842         1.18811
H         17.32322        54.91249         1.51597
H         19.71157         5.90826        -1.39336
H         18.50203         7.95710        -0.65296
H         18.74693        57.16335         1.49375
H         19.92722        59.16918         2.06206
H         23.07184         2.84185        -2.88171
H         20.94214         3.91994        -2.19216
H         23.30962        62.49780         1.77845
H         21.17958        61.26759         2.17038
H         25.24065         4.03261        -2.65603
H         26.51987         6.05615        -1.95178
H         26.70313        59.12478         1.60164
H         25.46322        61.26688         1.57912
H         27.78708         8.01428        -1.13208
H         29.07939         9.93595        -0.13383
H         29.17093        54.86697         1.30330
H         27.93504        57.00540         1.55411
H         29.63628        11.91085         2.01603
H         31.57319        14.00981         1.08622
H         31.59754        50.69440         0.24877
H         30.38198        52.75488         0.86597
H         32.83709        16.13783         1.07516
H         34.09431        18.29236         0.99193
H         34.01197        46.47001        -0.13218
H         32.78563        48.57812         0.04481
H         35.34485        20.44914         1.06113
H         36.56688        22.61911         1.10605
H         36.52834        42.24668        -1.10354
H         35.27363        44.38484        -0.57161
H         37.70065        24.68594         1.54275
H         39.10441        27.22874         1.35020
H         39.04475        37.89615        -1.40014
H         37.79337        40.11940        -1.29536
H         40.29825        29.12362         0.13729
H         41.51420        31.13272        -0.78691
H         41.54106        33.58085        -0.82850
H         40.34051        35.70261        -1.16835
