         344
 CSIRO Nanostructure Databank - Neutral Graphene Oxide Data Set
C          1.22068         2.02664        -0.07729
C          1.20165         3.42616         0.04656
C          2.41927         1.33887        -0.06414
C          2.38687         4.16160         0.19909
C          1.17828         6.33705         0.26730
C          1.16271         7.73060         0.35532
C          2.38210         5.62088         0.29407
C          2.35005         8.45762         0.42151
C          1.10463        10.70670         0.23866
C          1.12067        12.06116         0.09586
C          2.33986         9.95474         0.66460
C          2.33178        12.83646         0.15050
C          1.15655        15.00237         0.48221
C          1.17842        16.37661         0.56785
C          2.35588        14.24263         0.29969
C          2.39971        17.09818         0.47991
C          2.42995        18.52295         0.55456
C          3.64666         2.04266         0.08961
C          3.63035         3.46913         0.23759
C          4.87404         1.34670         0.07505
C          4.86423         4.17760         0.42866
C          3.61196         6.34035         0.40114
C          3.59455         7.76603         0.43115
C          4.86574         5.63372         0.51231
C          4.84721         8.49542         0.47049
C          3.58763        10.60227         0.10403
C          3.59334        12.10194        -0.05832
C          4.86540         9.90972         0.35495
C          4.88122        12.79491         0.10924
C          3.61191        14.95022         0.24957
C          3.62277        16.37554         0.32260
C          4.85322        14.25305         0.13104
C          4.85386        17.08992         0.25001
C          3.61461        19.21382         0.47569
C          4.86296        18.52404         0.32098
C          6.09324         2.03355         0.22948
C          6.06498         3.45437         0.44696
C          7.33299         1.34378         0.19043
C          7.33641         4.12902         0.73273
C          6.06420         6.35418         0.63292
C          6.07729         7.78820         0.56068
C          7.34578         5.65044         0.84661
C          7.30301         8.52279         0.59671
C          6.07126        10.64145         0.39792
C          6.05145        12.09143         0.32318
C          7.29477         9.91686         0.55466
C          7.28907        12.91562         0.67276
C          6.05795        14.96327         0.02512
C          6.07964        16.38106         0.09528
C          7.31689        14.16300        -0.22290
C          7.31480        17.10072         0.02830
C          6.07675        19.21854         0.23317
C          7.31419        18.53254         0.08814
C          8.57597         2.02555         0.22631
C          8.59513         3.45131         0.40166
C          9.80003         1.33929         0.09589
C          9.78718         4.18018         0.29159
C          8.61459         6.34677         0.56764
C          8.63495         7.83163         0.83241
C          9.78015         5.64172         0.31698
C          9.78806         8.55387         0.17501
C          8.59242        10.64344         0.63808
C          8.60023        12.13831         0.61622
C          9.81798         9.92316         0.20430
C          9.83039        12.83838         0.18119
C          8.58742        14.95244        -0.05313
C          8.55799        16.39928        -0.08349
C          9.78884        14.25276         0.03608
C          9.75239        17.12756        -0.19860
C          8.53912        19.23811         0.02054
C          9.76847        18.55599        -0.13594
C         11.02463         2.04371         0.06633
C         11.01680         3.47928         0.10724
C         12.26136         1.35502        -0.02507
C         12.24191         4.19620        -0.05325
C         11.01713         6.33700         0.00478
C         10.93739         7.78614        -0.41533
C         12.21029         5.65192        -0.14891
C         12.24529         8.53217        -0.31981
C         11.02678        10.67776        -0.07205
C         11.03719        12.10191        -0.01800
C         12.24125         9.95088        -0.30308
C         12.28127        12.80569        -0.26266
C         11.07521        15.03080         0.15865
C         11.00235        16.37388        -0.55722
C         12.30976        14.26444        -0.25717
C         12.27484        17.14958        -0.35564
C         11.00972        19.25128        -0.19405
C         12.25871        18.56967        -0.26593
C         13.46920         2.05858        -0.12777
C         13.43912         3.48903        -0.19452
C         14.73100         1.37348        -0.18397
C         14.71532         4.18397        -0.58321
C         13.46390         6.37305        -0.35999
C         13.45747         7.81654        -0.41100
C         14.67561         5.68063        -0.40699
C         14.69734         8.52170        -0.58553
C         13.47166        10.66217        -0.51338
C         13.45030        12.09388        -0.53144
C         14.68824         9.94806        -0.68991
C         14.68052        12.85576        -0.97303
C         13.47128        14.97499        -0.42863
C         13.48875        16.43500        -0.42500
C         14.78667        14.24274        -0.31713
C         14.70012        17.14820        -0.52057
C         13.50119        19.25724        -0.20574
C         14.71627        18.56287        -0.34882
C         15.94788         2.05367        -0.12580
C         15.92091         3.55104         0.10942
C         17.18269         1.38426        -0.15775
C         17.20600         4.25640        -0.26325
C         15.91940         6.37745        -0.47881
C         15.91109         7.77123        -0.62249
C         17.18624         5.64484        -0.44679
C         17.18101         8.45101        -0.93459
C         15.93206        10.69364        -0.84047
C         15.95702        12.06297        -0.82730
C         17.19430         9.94041        -1.03807
C         17.24212        12.80448        -0.86421
C         15.96233        14.99779        -0.86917
C         15.96452        16.48988        -1.01857
C         17.24865        14.30760        -0.89845
C         17.20232        17.05046        -0.27545
C         15.98731        19.24464        -0.29171
C         17.19948        18.56541        -0.27336
C         18.42259         2.07943        -0.16814
C         18.43144         3.53148        -0.25980
C         19.63911         1.38166        -0.15175
C         19.66218         4.21422        -0.37431
C         18.43288         6.35624        -0.52919
C         18.46053         7.76661        -0.68084
C         19.66799         5.64645        -0.47221
C         19.66989         8.48786        -0.63881
C         18.49065        10.62512        -0.91101
C         18.48063        12.05554        -1.23228
C         19.68882         9.94168        -0.77082
C         19.78329        12.79350        -1.29550
C         18.45310        15.07362        -1.43979
C         18.51052        16.45150        -0.77397
C         19.78220        14.29825        -1.36311
C         19.67580        17.13475        -0.58942
C         18.43758        19.22404        -0.09181
C         19.66714        18.53275        -0.13282
C         20.88873         2.05566        -0.19094
C         20.90656         3.49126        -0.30634
C         22.11389         1.35677        -0.15692
C         22.13343         4.17342        -0.31526
C         20.88546         6.36922        -0.49232
C         20.89503         7.77201        -0.49640
C         22.20192         5.64509        -0.62945
C         22.14883         8.50087        -0.35069
C         20.93544        10.67649        -0.65036
C         20.99195        12.08279        -0.81776
C         22.14555         9.93299        -0.35694
C         22.15471        12.83572        -0.45788
C         21.05609        15.01741        -1.07935
C         20.99656        16.50753        -0.86945
C         22.22080        14.24406        -0.54857
C         22.23836        17.20346        -0.41225
C         20.86637        19.18681         0.21359
C         22.13294        18.55628         0.19141
C         23.34385         2.04162        -0.14493
C         23.35536         3.47741        -0.16687
C         24.59020         1.34598        -0.09847
C         24.60428         4.18326        -0.05211
C         23.28619         6.32909         0.19251
C         23.33986         7.80756        -0.09096
C         24.62102         5.62989         0.06718
C         24.57324         8.49497         0.02343
C         23.33861        10.62105        -0.08783
C         23.26488        12.08186         0.26506
C         24.56859         9.92053         0.00608
C         24.59615        12.77151         0.16137
C         23.37184        14.97793        -0.14009
C         23.43114        16.38404        -0.09036
C         24.55714        14.25391         0.45815
C         24.60482        17.08569         0.32615
C         23.29834        19.17841         0.62813
C         24.56069        18.49714         0.61858
C         25.79159         2.02783        -0.08032
C         25.80921         3.45793        -0.05128
C         27.08051         1.25186         0.10389
C         27.08498         4.15838         0.05871
C         25.79290         6.33838         0.23556
C         25.81425         7.78950         0.19083
C         27.06732         5.59448         0.55572
C         27.03372         8.50820         0.15203
C         25.81664        10.62475        -0.00846
C         25.76651        12.07791         0.03910
C         27.03208         9.92187        -0.04966
C         27.05094        12.81284        -0.09877
C         25.85990        14.95417         0.02626
C         25.85173        16.40173         0.44804
C         27.07697        14.17563         0.55379
C         27.02697        17.06807         0.74845
C         25.75544        19.17217         0.90527
C         27.01024        18.50036         0.91717
C         28.33201         1.99716        -0.37985
C         28.26324         3.48659        -0.06480
C         29.57744         1.36826         0.22768
C         29.54433         4.17709         0.32565
C         28.30328         6.39133         0.24618
C         28.30763         7.77686         0.20266
C         29.59045         5.66814        -0.03079
C         29.56622         8.49264         0.17354
C         28.34253        10.58272        -0.50399
C         28.31572        12.11012        -0.41466
C         29.53284        10.00058         0.28336
C         29.60411        12.88860        -0.29842
C         28.35665        14.94531         0.40226
C         28.32112        16.32739         1.00086
C         29.55821        14.31550         0.12651
C         29.54408        17.13065         0.67663
C         28.22742        19.20107         1.00398
C         29.48278        18.54497         0.79162
C         30.73794         2.03179         0.30714
C         30.78483         3.44499        -0.22316
C         32.03991         4.22777         0.09597
C         30.79597         6.34890         0.65372
C         30.80880         7.81930         0.25412
C         32.05068         5.53801         0.38578
C         32.00919         8.52212         0.14154
C         30.86117        10.66228        -0.03642
C         30.90893        12.14325        -0.15764
C         32.01730         9.92612        -0.06962
C         32.06006        12.91060         0.34389
C         30.80190        15.02344         0.27244
C         30.76951        16.47120         0.42024
C         32.01022        14.27969         0.42329
C         31.93815        17.25777         0.26785
C         30.67828        19.29354         0.65081
C         31.88465        18.64720         0.39056
O         30.44138        12.64841        -1.47474
O         19.12988        12.29556        -2.52441
O          3.49473        11.17555        -1.22419
O         21.83724        17.21714        -1.83664
O         17.53255        13.57100         0.38911
O         27.51853        12.73555        -1.49962
O          7.36440         4.80443         2.04522
O         20.67696        14.68800        -2.46538
O          8.79923        11.39644         1.89597
O         17.13666         9.10651        -2.26639
O         29.57702         4.05085         1.78081
H         28.72761         4.44012         2.11596
O         18.19121        15.28560        -2.85031
H         19.07407        15.34934        -3.29160
O         26.93314        13.92017         1.98930
H         27.36757        14.68520         2.46112
O         30.63556         6.40233         2.09067
H         30.52349         5.46770         2.39583
O         14.98476        14.07050         1.11712
H         15.95601        13.95264         1.26807
O         10.64203         7.72567        -1.87218
H         11.43794         7.36026        -2.31468
O         15.73634         3.75592         1.53797
H         16.48785         3.33356         2.00383
O         24.37261        14.38813         1.90309
H         25.23379        14.10566         2.31464
O         27.08259         5.44625         2.04505
H         26.23262         5.02294         2.29672
O          8.88777         7.94258         2.27784
H          8.87988         8.89713         2.50901
O         22.89428         6.18704         1.59399
H         23.47050         6.77278         2.12863
O         10.91342        16.07954        -1.98783
H         11.01347        16.92317        -2.47686
O         17.05360        16.62286         1.10873
H         17.74010        17.07535         1.64202
O         28.52436        10.22096        -1.88636
H         28.08905        10.91696        -2.42768
O          7.12150        13.38352         2.02837
H          7.48764        12.68375         2.61673
O         14.53481        13.10769        -2.40326
H         14.44593        12.24460        -2.85969
O         27.01830        -0.01379        -0.54958
H         27.35018         0.13860        -1.46353
O          2.45666        10.12045         2.11857
H          1.71628         9.63393         2.53803
O         25.89456        14.97691        -1.41753
H         26.57788        14.35343        -1.75250
O          7.28701        13.67555        -1.59606
H          7.36878        14.44607        -2.19591
O         16.04756        16.87766        -2.41613
H         16.77782        16.35469        -2.83774
O         28.34846        16.13062         2.50513
H         29.28518        15.97015         2.75266
O         22.60722         5.76350        -2.02421
H         21.91751         5.34297        -2.57885
O         29.80425         5.78467        -1.47338
H         29.77978         6.73962        -1.70269
O         22.87871        12.11596         1.68694
H         23.21584        12.97781         2.04722
O         28.39860         1.83836        -1.81926
H         29.25059         2.26750        -2.09639
O         11.23668        15.32740         1.57423
H         11.40204        14.48478         2.04681
O         29.24747        10.33125         1.68700
H         29.81118         9.75616         2.24787
O         30.70028         3.33044        -1.67133
H         30.55446         4.24357        -2.02168
O         14.90584         3.94497        -2.01206
H         14.13624         4.31998        -2.48859
H          0.27285         1.48314        -0.19473
H          0.22905         3.93436         0.01601
H          2.43897         0.24520        -0.17322
H          0.21710         5.81241         0.19544
H          0.19192         8.24470         0.36310
H          0.14025        10.18165         0.17999
H          0.16611        12.58206        -0.07304
H          0.19295        14.47941         0.54983
H          0.23930        16.93294         0.70229
H          1.48097        19.06546         0.67679
H          4.87759         0.25578        -0.06486
H          3.62093        20.31208         0.53221
H          7.32818         0.25109         0.06451
H          6.07737        20.31755         0.28434
H          9.80261         0.24311         0.00876
H          8.53293        20.33603         0.08729
H         12.26758         0.25535        -0.01028
H         11.00587        20.34930        -0.12681
H         14.72875         0.27400        -0.24513
H         13.50879        20.34928        -0.07563
H         17.19473         0.28460        -0.21506
H         15.98696        20.34224        -0.20207
H         19.62705         0.28292        -0.09216
H         18.44505        20.30993         0.08930
H         22.10767         0.25704        -0.12738
H         20.80738        20.22884         0.56356
H         24.59659         0.24652        -0.07485
H         23.25789        20.21657         0.99104
H         27.18902         1.05917         1.20982
H         25.73185        20.25842         1.07951
H         29.50231         0.32460         0.57104
H         28.21395        20.29613         1.10956
H         31.64161         1.56476         0.72761
H         32.99836         3.69368        -0.01034
H         33.01990         6.02419         0.58144
H         32.96935         7.99308         0.19358
H         32.98180        10.42526        -0.24283
H         32.98427        12.38015         0.61241
H         32.92188        14.81982         0.71866
H         32.89690        16.77569         0.03208
H         30.64437        20.38919         0.73630
H         32.80423        19.23701         0.26984
