         595
 CSIRO Nanostructure Databank - Neutral Graphene Oxide Data Set
C         23.66670        69.45260        -3.73583
C         23.76178        70.78919        -4.11597
C         22.98586        71.33933        -5.17157
C         24.25122        73.43172        -5.13270
C         23.21631        72.63625        -5.63605
C         25.75463        65.32568        -1.94529
C         25.69481        66.76728        -2.03989
C         24.63018        67.42350        -2.69088
C         25.67067        69.60372        -2.28348
C         24.62395        68.82741        -2.86596
C         25.71861        71.06886        -2.46641
C         24.72394        71.68665        -3.43898
C         26.19450        73.68237        -3.63100
C         25.07806        72.97457        -4.07465
C         27.97828        61.07829        -0.68721
C         27.96649        62.49024        -0.79476
C         26.87367        63.21722        -1.29561
C         28.09890        65.41775        -1.18157
C         26.87435        64.63394        -1.49263
C         27.97181        66.89776        -1.01956
C         26.72902        67.56502        -1.46855
C         27.78555        69.79976        -0.97968
C         26.70515        68.96739        -1.57962
C         28.01555        71.16906        -1.50626
C         26.99243        71.78635        -2.23470
C         28.34756        73.81268        -2.41894
C         27.16405        73.11882        -2.73615
C         30.45833        56.82765        -0.07204
C         30.38794        58.21430        -0.11527
C         29.17324        58.93249        -0.35176
C         30.25929        61.04160         0.35151
C         29.11321        60.33016        -0.27989
C         30.23615        62.54896         0.40407
C         29.21847        63.21717        -0.45303
C         30.25240        65.46154         0.22277
C         29.27891        64.72311        -0.57425
C         30.10050        66.91397         0.47057
C         28.91631        67.63062        -0.11570
C         30.18822        69.85765        -0.09820
C         28.92026        69.12723        -0.27239
C         30.28484        71.23417        -0.45681
C         29.21803        71.86361        -1.19534
C         30.57879        73.91952        -1.35773
C         29.37905        73.21567        -1.65378
C         32.86686        52.52641         0.69101
C         32.84931        53.90125         0.49760
C         31.67333        54.67608         0.28833
C         32.89409        56.81164         0.31453
C         31.68853        56.09648         0.14956
C         32.94923        58.26796         0.19834
C         31.63962        59.01085        -0.02743
C         32.75064        61.13608         0.66540
C         31.58199        60.41568         0.38929
C         32.69223        62.59959         0.83615
C         31.50065        63.27559         0.63239
C         32.65366        65.52415         1.14456
C         31.38234        64.73977         0.79569
C         32.67817        67.01292         0.87960
C         31.36933        67.72988         0.63015
C         32.25350        70.07441         1.06982
C         31.23286        69.23027         0.60247
C         32.55721        71.34471         0.52829
C         31.49809        71.94815        -0.21521
C         32.85396        73.98158        -0.36686
C         31.63827        73.30885        -0.66057
C         35.33330        48.30334         1.89637
C         35.29018        49.67230         1.50462
C         34.11755        50.38134         1.28576
C         35.35599        52.54011         1.09660
C         34.15712        51.73727         0.61625
C         35.31375        53.91239         1.09058
C         34.15299        54.61508         0.50697
C         35.34285        56.86330         1.01203
C         34.17428        56.11672         0.47530
C         35.29121        58.31265         1.07928
C         34.09454        59.01885         0.75367
C         35.18852        61.18455         1.24349
C         33.99363        60.42156         0.84768
C         35.21202        62.64978         0.95477
C         33.91206        63.37789         1.03340
C         35.17663        65.51959         1.32617
C         33.91306        64.75231         1.09888
C         35.23434        66.95637         0.82989
C         33.97107        67.69056         1.19725
C         35.20797        69.84889         1.20766
C         34.07776        69.01455         1.52785
C         35.09160        71.22988         0.92065
C         33.87288        71.95119         0.64088
C         35.19465        74.05724         0.30109
C         33.96799        73.33279         0.20551
C         37.79635        44.05821         1.95300
C         37.76739        45.42139         2.30948
C         36.57001        46.16218         2.29965
C         37.78857        48.26918         2.08398
C         36.54732        47.58627         2.13521
C         37.85406        49.61001         1.48758
C         36.57889        50.35953         1.21285
C         37.78793        52.54657         1.46460
C         36.60789        51.84889         1.29900
C         37.76575        53.97892         1.79880
C         36.43556        54.70907         1.59826
C         37.63583        56.90024         2.06879
C         36.45193        56.17784         1.45027
C         37.70775        58.32089         1.56783
C         36.52464        59.00188         1.30611
C         37.78373        61.23178         1.22934
C         36.52442        60.48121         1.36328
C         37.79782        62.62787         1.35521
C         36.51406        63.35537         1.15312
C         37.74787        65.54311         1.42547
C         36.48338        64.80611         1.46653
C         37.68221        67.00226         1.79431
C         36.45551        67.71926         1.29155
C         37.70001        69.83685         1.31985
C         36.46596        69.11583         1.23582
C         37.70840        71.23138         0.87031
C         36.37961        71.92799         0.60394
C         37.65875        74.07333         0.47900
C         36.42223        73.40914         0.51668
C         39.98868        40.50520        -0.54004
C         40.08137        41.66786         0.24011
C         38.96485        42.15884         0.96486
C         40.28858        44.06581         1.80412
C         39.00818        43.40698         1.61425
C         40.34707        45.39708         2.34047
C         39.05290        46.07886         2.61963
C         40.30952        48.27407         2.22490
C         39.02099        47.64444         2.54590
C         40.34305        49.49792         1.61551
C         39.13110        50.37173         1.67222
C         40.30859        52.71847         1.32384
C         39.11044        51.86621         1.55469
C         40.29153        54.08727         1.71421
C         39.01660        54.78912         1.83392
C         40.19010        56.95133         2.14532
C         38.95717        56.15569         1.92902
C         40.24146        58.34177         1.73619
C         38.99418        58.97606         1.30894
C         40.35358        61.25381         1.00865
C         39.02420        60.49616         1.01127
C         40.27306        62.70171         1.46808
C         39.00080        63.37487         1.43349
C         40.17817        65.54936         1.60484
C         38.96519        64.83021         1.48319
C         40.17461        66.98703         1.30904
C         38.94330        67.75910         1.50465
C         40.22301        69.91193         1.65953
C         38.93049        69.14495         1.45196
C         40.17666        71.37705         1.25277
C         38.95219        72.01750         0.96510
C         40.14769        74.10904         0.54787
C         38.92204        73.41310         0.65413
C         41.90284        37.70170        -4.22580
C         42.05126        38.74280        -3.29076
C         40.97314        39.09239        -2.45221
C         42.27031        41.08593        -1.50747
C         40.95854        40.27143        -1.59576
C         42.49580        41.94095        -0.32789
C         41.34522        42.37681         0.36755
C         42.78276        43.97940         1.60731
C         41.45157        43.45687         1.28743
C         42.85536        45.41383         2.24692
C         41.56295        46.08704         2.42786
C         42.88918        48.29879         2.29886
C         41.57322        47.55744         2.51888
C         42.81048        49.58352         1.56629
C         41.58973        49.99574         1.11118
C         42.79480        52.66204         1.19508
C         41.53843        52.16631         0.87622
C         42.78551        54.00789         1.79521
C         41.51568        54.76163         1.84452
C         42.78548        56.96033         1.86248
C         41.56791        56.18024         2.18092
C         42.73232        58.34464         1.75879
C         41.46991        59.07619         1.74501
C         42.77400        61.20292         1.78109
C         41.49319        60.47196         1.62281
C         42.76232        62.71332         1.81306
C         41.44719        63.39694         1.68843
C         42.78009        65.62107         1.61821
C         41.43855        64.85837         1.82828
C         42.76128        67.05215         1.22282
C         41.44661        67.70951         1.00343
C         42.66471        69.95976         0.85895
C         41.39435        69.21200         0.98525
C         42.68594        71.38008         1.44609
C         41.38466        72.08347         1.14385
C         42.63392        74.12797         0.51270
C         41.39405        73.45658         0.73867
C         44.07933        35.76080        -6.67796
C         42.95071        36.17128        -5.99512
C         44.43118        37.77308        -4.65331
C         43.05246        37.07342        -4.85370
C         44.43054        39.05923        -3.93297
C         43.32402        39.47434        -3.22970
C         44.78514        41.17803        -1.98846
C         43.42880        40.67470        -2.36522
C         44.97678        41.65661        -0.56645
C         43.79743        42.44121        -0.02587
C         45.23691        44.14553         1.10529
C         43.97089        43.49251         0.88962
C         45.32138        45.45515         1.62584
C         44.11816        46.15835         2.00834
C         45.39048        48.28837         2.04236
C         44.15204        47.54342         2.07159
C         45.27499        49.71922         1.87839
C         44.05627        50.31375         1.26326
C         45.35024        52.60409         1.21557
C         44.03706        51.86004         1.05374
C         45.33723        54.10498         1.44617
C         44.06938        54.77908         1.86508
C         45.24641        56.92737         1.67656
C         44.04417        56.25784         1.78237
C         45.25292        58.31494         1.22427
C         43.92928        59.06362         1.27374
C         45.18707        61.22596         1.12290
C         44.01327        60.52557         1.38132
C         45.15448        62.67551         1.12097
C         44.00273        63.41647         1.41036
C         45.17984        65.57741         1.04831
C         43.99930        64.85318         1.29911
C         45.20560        67.02149         1.04282
C         43.93572        67.73206         1.03551
C         45.15775        69.91000         1.29030
C         43.97557        69.20301         0.64183
C         45.17476        71.40838         1.23039
C         43.91141        72.11345         0.99304
C         45.14266        74.11635         0.28397
C         43.89393        73.46457         0.61725
C         45.35269        36.31892        -6.45250
C         46.77177        38.04476        -5.42565
C         45.54325        37.41147        -5.56862
C         46.93914        39.26444        -4.63079
C         45.70094        39.83530        -3.89112
C         47.22877        41.13637        -2.40166
C         45.96173        40.65207        -2.70273
C         47.42958        42.03733        -1.29125
C         46.33954        42.30017        -0.33470
C         47.73958        44.25235         0.60515
C         46.46509        43.50172         0.59681
C         47.80551        45.45824         1.35172
C         46.59831        46.15665         1.73558
C         47.95079        48.10509         2.67199
C         46.62675        47.54911         2.07313
C         48.10577        49.59777         2.72842
C         46.24195        50.63770         2.35172
C         47.74584        52.62068         2.20409
C         46.49100        51.90702         1.83322
C         47.79926        54.08273         1.88319
C         46.56506        54.77957         1.84315
C         47.80317        56.97141         1.53466
C         46.53045        56.23869         1.90673
C         47.70236        58.36314         1.03903
C         46.51450        59.06984         1.08384
C         47.63879        61.19202         0.65652
C         46.45408        60.50694         0.87693
C         47.64967        62.65574         0.50341
C         46.36169        63.41415         0.70261
C         47.63526        65.54549         0.94455
C         46.42511        64.87501         0.92719
C         47.67591        66.99136         0.92264
C         46.42210        67.70348         0.95750
C         47.68288        69.92674         0.87150
C         46.46276        69.16776         1.21702
C         47.67981        71.28892         0.67178
C         46.47729        72.11904         0.94199
C         47.59353        74.08506        -0.07059
C         46.38052        73.48098         0.36308
C         48.24298        39.66898        -4.12699
C         49.65387        41.21376        -2.84963
C         48.38132        40.66470        -3.16113
C         49.80973        42.23746        -1.90592
C         48.67590        42.65354        -1.07836
C         50.19881        44.23270         0.08745
C         48.83956        43.69125        -0.10562
C         50.34969        45.50186         0.90509
C         49.13795        46.07634         1.57421
C         50.37773        48.33247         1.68662
C         49.22852        47.47718         2.10754
C         50.35419        49.72863         1.81457
C         49.14110        50.38264         2.30081
C         50.37916        52.68547         2.33263
C         49.06883        51.87698         2.42968
C         50.27082        53.98192         1.48160
C         48.99564        54.74866         1.67313
C         50.26477        56.87497         1.15751
C         48.96976        56.12121         1.04919
C         50.23334        58.24250         0.63053
C         48.92424        58.97409         0.50832
C         50.18706        61.23611         0.50117
C         48.91134        60.50211         0.37320
C         50.14328        62.66498         0.67214
C         48.92600        63.35742         0.69072
C         50.21626        65.53827         1.05835
C         48.90083        64.78191         1.02743
C         50.18470        67.03478         0.97324
C         48.87701        67.69917         0.83130
C         50.14911        69.85676         0.28729
C         48.83058        69.11372         0.31319
C         50.08746        71.28220         0.12711
C         48.88612        71.97746         0.23512
C         50.01212        74.06564        -0.48117
C         48.82338        73.40353        -0.07071
C         51.06497        42.87752        -1.79192
C         52.47969        44.63016        -0.82023
C         51.27919        43.92175        -0.87641
C         52.65801        45.80170        -0.01050
C         51.53461        46.33736         0.72541
C         52.76092        48.43818         1.04166
C         51.55904        47.69225         1.16806
C         52.75826        49.84010         1.21944
C         51.53801        50.50494         1.57220
C         52.74457        52.63656         1.60431
C         51.56446        51.91062         1.78509
C         52.75492        54.09355         1.90341
C         51.50183        54.83920         1.72041
C         52.72883        57.00363         1.40405
C         51.49453        56.23037         1.43544
C         52.74201        58.37642         1.12606
C         51.50462        59.04558         0.64868
C         52.62411        61.23041         0.68046
C         51.42934        60.53303         0.63014
C         52.59214        62.65263         0.30939
C         51.37803        63.42544         0.61192
C         52.64570        65.55137         0.31641
C         51.42991        64.81012         0.64873
C         52.64300        66.96670         0.18521
C         51.44238        67.75437         0.55140
C         52.54670        69.83743        -0.34950
C         51.34953        69.17402         0.14460
C         52.50359        71.21930        -0.53321
C         51.39293        72.03757         0.07407
C         52.42357        74.09691        -0.92663
C         51.26142        73.42672        -0.51895
C         53.87756        46.47180         0.01296
C         55.18191        48.53830         0.41391
C         54.05548        47.67747         0.88420
C         55.16532        49.91918         0.57823
C         53.96258        50.59693         1.03466
C         55.18460        52.75778         1.06190
C         53.96804        51.99285         1.23835
C         55.24191        54.15012         1.30117
C         54.05892        54.85460         1.85968
C         55.24114        57.04902         1.30089
C         54.02511        56.39149         1.90836
C         55.20777        58.46428         1.15105
C         53.95458        59.12968         1.13305
C         55.16681        61.31169         0.62485
C         53.91738        60.63619         1.17374
C         55.14638        62.66166         0.27043
C         53.86908        63.38056         0.09032
C         55.05264        65.52941        -0.22908
C         53.85588        64.85180         0.10526
C         54.99472        66.91671        -0.49474
C         53.79324        67.64179        -0.29970
C         54.94055        69.72939        -0.98779
C         53.75167        69.07303        -0.59465
C         54.90532        71.14888        -1.37885
C         53.59719        71.92790        -1.17761
C         54.86226        74.04881        -1.34419
C         53.65342        73.40750        -1.12059
C         56.32913        50.69449         0.33093
C         57.57226        52.80556         0.42765
C         56.37026        52.07862         0.59727
C         57.62061        54.19703         0.63123
C         56.42003        54.88482         1.02534
C         57.64470        57.04181         0.83088
C         56.42676        56.32718         1.07271
C         57.64435        58.45078         0.86622
C         56.43547        59.19170         0.94259
C         57.60553        61.32106         0.35868
C         56.41086        60.61092         0.69081
C         57.56198        62.66239        -0.05427
C         56.33554        63.38804        -0.04610
C         57.51851        65.51346        -0.56511
C         56.29998        64.78925        -0.32952
C         57.49626        66.90690        -0.81647
C         56.18042        67.55845        -1.16055
C         57.40043        69.75337        -1.31127
C         56.18974        69.05924        -1.07321
C         57.38544        71.21392        -1.42003
C         56.15411        71.91222        -1.41802
C         57.32229        74.05715        -1.47176
C         56.11363        73.34222        -1.44989
C         58.83142        54.92414         0.46367
C         60.10726        57.02746         0.44817
C         58.88286        56.32211         0.59716
C         60.18398        58.43187         0.56607
C         58.93387        59.15438         0.87639
C         60.14925        61.27331         0.14840
C         58.90944        60.66681         0.59127
C         60.09485        62.60017        -0.45618
C         58.77152        63.34864        -0.53772
C         59.96522        65.53433        -0.81997
C         58.77864        64.82831        -0.60209
C         59.96782        66.95720        -0.96227
C         58.69348        67.63936        -1.00148
C         59.89519        69.73249        -1.59208
C         58.63611        69.03841        -1.30069
C         59.86639        71.27175        -1.69271
C         58.58403        71.95422        -1.51269
C         59.79514        74.09851        -1.51898
C         58.56899        73.38444        -1.49395
C         61.37354        59.15734         0.40709
C         62.60414        61.27973        -0.01367
C         61.39858        60.58856         0.24918
C         62.64615        62.73872        -0.10436
C         61.31323        63.43409        -0.33299
C         62.54167        65.55104        -1.01689
C         61.25267        64.80024        -0.93977
C         62.47081        67.02425        -0.96968
C         61.19480        67.68379        -1.03294
C         62.33897        69.88415        -1.08096
C         61.18070        69.11001        -1.21461
C         62.31830        71.32146        -1.24245
C         61.10522        72.00683        -1.44130
C         62.25800        74.17219        -1.40989
C         61.04891        73.44255        -1.44134
C         63.86252        63.51011        -0.40518
C         64.99770        65.66848        -0.74378
C         63.82382        64.86940        -0.67555
C         64.93349        67.07046        -0.85330
C         63.65278        67.74265        -0.87348
C         64.90753        69.99010        -0.62137
C         63.60338        69.20582        -0.70311
C         64.77385        71.45946        -0.85432
C         63.53358        72.08360        -1.13658
C         64.71588        74.26731        -1.34764
C         63.50344        73.51961        -1.28861
C         66.11827        67.84152        -0.99164
C         67.36552        69.86126        -1.42773
C         66.16724        69.24420        -0.96981
C         67.68339        71.21338        -1.17526
C         65.88051        72.28728        -0.67508
C         67.23999        74.23721        -1.34975
C         65.94529        73.64413        -1.10135
C         68.50398        72.11305        -1.86026
C         68.37046        73.52655        -1.71991
O         34.49887        55.30556        -0.74343
O         36.88143        54.28074         2.93948
O         59.03728        60.11421         1.96085
O         41.77408        69.81117        -0.29188
O         46.70379        42.11987         1.07544
O         47.42665        56.82840         2.92944
O         42.89405        61.94531         3.06355
O         43.54892        54.16641         3.08838
O         28.92512        67.23998         1.29754
O         43.96497        41.93573        -2.93301
O         53.98353        71.40850        -2.49331
O         39.16701        51.17847         2.89987
O         64.21110        69.59096         0.59791
O         44.14348        50.91778        -0.06061
O         46.83838        63.08716        -0.66205
O         31.73006        65.15891         2.19288
O         59.91712        70.40997        -2.88839
O         67.00435        71.75334        -0.05510
O         40.88206        56.60978         3.38407
O         38.99301        59.53372        -0.08575
O         44.04752        36.64890        -3.83373
O         37.10784        71.30960        -0.49918
O         45.50338        53.52224         0.08879
O         43.01797        44.20441         3.02496
O         59.37823        62.70129        -1.72476
O         61.91677        64.95542        -2.22768
O         51.07631        67.63050         1.98829
O         53.56946        54.32563         3.13372
O         40.70881        67.14239        -0.12876
O         28.60033        66.32161        -2.23138
O         49.62622        65.04959         2.30191
O         29.80366        61.77750         1.55634
O         49.56824        46.33546         2.96952
O         47.04635        50.18877         3.40500
O         35.67391        65.23024         2.67152
O         32.25647        67.33185        -0.50244
O         37.32512        49.74299         0.11471
O         35.73718        60.90142         2.56733
O         42.32387        48.17710         3.63244
O         48.26372        52.34365         3.55235
O         42.24000        65.38084         2.95597
O         29.90189        63.81824        -1.59501
O         32.99277        69.62714         2.15964
O         45.74374        69.40970         2.50749
O         27.82126        69.75118         0.49145
O         53.10529        62.85653        -1.08079
O         41.46924        50.98437         0.12922
O         46.13065        40.40601        -5.15436
O         35.99660        63.05725        -0.21188
O         51.04522        58.42066        -0.60044
O         48.77589        59.60575        -0.79127
O         24.53160        71.78193        -1.98757
O         61.84872        63.41127         1.00345
O         32.55472        58.75459        -1.14317
O         44.42883        58.50925         0.01163
O         45.97173        72.02057         2.31378
O         41.19457        41.54543        -2.34738
O         50.66559        44.17473         1.47384
O         38.99805        46.90734         3.79985
O         50.73447        53.08058         3.67197
H         49.90485        53.09802         4.20385
O         34.37076        51.47789        -0.81624
H         34.42351        52.34619        -1.27071
O         42.79777        71.24988         2.89514
H         43.74500        71.27966         3.15186
O         48.75281        55.89501        -0.39764
H         49.03336        56.70214        -0.88462
O         51.78197        72.24921         1.47988
H         51.02059        72.66750         1.93602
O         55.99901        67.27140        -2.60488
H         56.73969        67.70034        -3.08535
O         44.26546        69.26285        -0.77726
H         43.40012        69.18297        -1.24475
O         54.08849        56.78071         3.31929
H         53.72754        56.01370         3.83001
O         40.49238        69.82467         3.08196
H         39.78307        70.29149         3.56976
O         53.92819        60.97591         2.61853
H         54.62055        60.42759         3.04778
O         44.97454        40.41363         0.19885
H         45.45483        40.60517         1.03935
O         37.56437        67.03536         3.27967
H         36.79237        66.45641         3.50387
O         48.49659        68.93893        -1.12456
H         48.48463        69.83008        -1.53617
O         37.37815        56.96241         3.50685
H         37.24845        56.03044         3.80732
O         54.42294        47.19492         2.24390
H         53.66938        46.66230         2.57882
O         47.81953        47.71959         4.06488
H         48.28307        46.85279         4.16582
O         40.75870        61.37990        -0.39494
H         40.40398        60.58711        -0.86374
O         35.32550        66.81654        -0.62067
H         35.21666        67.70205        -1.02696
O         50.28762        53.57029         0.07648
H         49.86548        54.29878        -0.44442
H         24.45015        74.41619        -5.58017
H         26.40707        74.66981        -4.06837
H         28.48533        74.83815        -2.79239
H         30.68481        74.96035        -1.69818
H         32.96351        75.03168        -0.67864
H         35.18753        75.13387         0.07319
H         37.66251        75.16168         0.31573
H         40.13741        75.17454         0.27386
H         42.61388        75.18574         0.21108
H         45.10048        75.14573        -0.10300
H         47.56958        75.12961        -0.41625
H         49.94025        75.11194        -0.81588
H         52.38201        75.17844        -1.12895
H         54.89382        75.14874        -1.33905
H         57.30406        75.15654        -1.45774
H         59.77082        75.19749        -1.55493
H         62.22747        75.26974        -1.47386
H         64.67459        75.33258        -1.61729
H         67.27612        75.33279        -1.45275
H         22.91289        68.81391        -4.22119
H         22.21783        70.71539        -5.65098
H         22.60012        73.02407        -6.45944
H         24.86235        64.75485        -2.24436
H         23.82863        66.82548        -3.14939
H         27.09317        60.52546        -1.03801
H         25.95469        62.66740        -1.55019
H         29.52963        56.24646        -0.17573
H         28.27846        58.36899        -0.65733
H         31.91828        51.96750         0.67185
H         30.70641        54.15518         0.22473
H         34.38198        47.76053         2.00070
H         33.14328        49.90125         1.46508
H         36.84638        43.53611         1.76365
H         35.62414        45.61476         2.16976
H         39.11422        39.84536        -0.44676
H         37.99812        41.64383         0.86365
H         40.89689        37.31832        -4.44906
H         40.10185        38.42159        -2.41779
H         43.97214        35.01945        -7.48291
H         41.95379        35.84088        -6.31964
H         46.19965        35.99025        -7.07095
H         47.65852        37.61766        -5.91892
H         49.14144        39.18169        -4.53428
H         50.53030        40.88362        -3.42643
H         51.87935        42.57651        -2.46747
H         53.30829        44.32434        -1.47619
H         54.73760        46.06478        -0.53888
H         56.09832        48.04765         0.05206
H         57.24076        50.19066        -0.02398
H         58.48227        52.27214         0.11590
H         59.75128        54.37188         0.22116
H         61.02386        56.45631         0.23883
H         62.31699        58.60760         0.27355
H         63.54156        60.71441        -0.11449
H         64.83643        63.00825        -0.30236
H         65.98035        65.18509        -0.63892
H         67.06129        67.29714        -1.15269
H         68.06826        69.24457        -2.00941
H         69.24277        71.73230        -2.58040
H         69.21460        74.12667        -2.09744
