         404
 CSIRO Nanostructure Databank - Neutral Graphene Oxide Data Set
C          1.15731         5.21250         3.93372
C         -0.03401         5.96614         3.75587
C          0.95392         7.17590         1.84712
C         -0.11562         6.96821         2.83087
C          1.01323         8.51901         1.18669
C         -0.10375         9.28248         0.95223
C          1.12997        11.08439        -0.20386
C         -0.05097        10.52630         0.25147
C          1.18388        12.21644        -1.11801
C         -0.00200        12.69994        -1.70257
C          1.27938        14.32506        -2.94215
C          0.04994        13.71829        -2.64263
C          1.46191        16.53710        -3.71444
C          0.34651        17.38688        -4.06366
C          1.69026        19.38892        -3.58797
C          0.41341        18.72859        -3.93099
C          1.68316        20.83903        -3.13531
C          0.39445        21.55218        -2.96337
C          1.37452        23.18914        -1.40780
C          0.26146        22.63922        -2.17565
C          1.22439        24.48151        -0.74575
C          0.02903        25.16339        -0.56459
C          1.09971        27.25514         0.22370
C         -0.03119        26.51936        -0.13911
C          1.10814        28.63731         0.62694
C         -0.09375        29.33754         0.89331
C          1.10814        31.44951         1.19291
C         -0.09247        30.68353         1.20449
C          1.10784        32.86293         1.53240
C         -0.01290        33.47733         2.12646
C          1.13386        35.61216         2.39417
C          0.03874        34.78976         2.63271
C          1.23064        36.92856         2.93016
C          3.53979         4.87181         3.68460
C          2.30724         5.41487         3.17487
C          3.49024         6.89038         1.38981
C          2.23471         6.33157         1.99603
C          3.47503         8.18248         0.66388
C          2.32890         9.11260         0.88833
C          3.65872        10.92597        -0.42143
C          2.39648        10.46125         0.20260
C          3.65810        12.18840        -1.03497
C          2.44254        12.82788        -1.44768
C          3.75267        14.69833        -2.60244
C          2.48714        13.98201        -2.31150
C          3.78247        16.12523        -2.87268
C          2.63734        16.99273        -3.16358
C          3.82426        19.07859        -2.25338
C          2.92684        18.50339        -3.33745
C          3.87623        20.40356        -1.91192
C          2.91084        21.44229        -2.44737
C          3.74063        23.04485        -0.65017
C          2.57812        22.50560        -1.40566
C          3.78615        24.52926        -0.51626
C          2.47101        25.22748        -0.46368
C          3.68233        27.29675         0.44139
C          2.37967        26.53211         0.25110
C          3.58268        28.75007         0.42373
C          2.34957        29.38052         0.64093
C          3.55102        31.56572         0.81980
C          2.31883        30.81359         0.84312
C          3.52613        32.98553         1.07869
C          2.30934        33.62459         1.37197
C          3.47420        35.90029         1.44697
C          2.15372        35.13695         1.38677
C          3.55030        37.19605         2.16320
C          2.36302        37.69883         2.79725
C          6.03285         4.64866         3.36501
C          4.69645         4.73153         2.92392
C          5.92663         6.59196         0.77885
C          4.59893         6.12159         1.21136
C          6.02547         7.97644         0.29724
C          4.77403         8.73327         0.09108
C          6.11349        10.67678        -0.69664
C          4.84808        10.16039        -0.28500
C          6.17659        12.02498        -1.22090
C          4.95562        12.92005        -1.18991
C          6.22945        14.39523        -2.67096
C          4.94677        13.98122        -2.27836
C          6.26265        16.40034        -2.84164
C          4.97926        16.87117        -2.60152
C          6.19248        18.77541        -1.48433
C          4.86828        18.09743        -1.74332
C          5.99264        20.01265        -0.80687
C          4.95985        20.88435        -1.06570
C          6.30936        23.08229        -0.53126
C          5.02485        22.27754        -0.52702
C          6.26499        24.47738        -0.40041
C          5.01550        25.12865         0.16513
C          6.07544        27.39806        -0.15923
C          4.95314        26.64030         0.06340
C          6.08079        28.83032         0.01252
C          4.75977        29.55193        -0.05913
C          6.01272        31.61324         0.70311
C          4.77118        30.93987         0.52000
C          5.99990        33.02404         1.02491
C          4.78246        33.69819         1.08626
C          6.03178        35.85139         1.55479
C          4.77568        35.16708         1.22704
C          6.01342        37.22935         1.91481
C          4.76152        37.85143         2.26684
C          8.41092         4.71644         3.21026
C          7.17607         5.05454         2.62641
C          8.47911         6.69679         1.16356
C          7.20616         5.95462         1.41718
C          8.50512         7.89746         0.38369
C          7.26049         8.58768         0.06653
C          8.58469        10.44305        -0.95120
C          7.28646         9.90381        -0.52201
C          8.64574        11.85817        -1.47912
C          7.38662        12.60713        -1.54484
C          8.65835        14.69312        -2.08399
C          7.44445        13.94324        -2.07885
C          8.66565        16.13543        -2.23089
C          7.48170        16.91907        -2.31665
C          8.74131        18.99014        -1.73132
C          7.46900        18.25740        -1.76522
C          8.83108        20.40797        -1.48274
C          7.81177        21.11130        -0.80498
C          8.70870        23.27395        -1.30256
C          7.57408        22.49459        -0.91153
C          8.63231        24.70532        -1.12002
C          7.40658        25.27577        -0.69722
C          8.59558        27.56291        -0.59441
C          7.30520        26.73992        -0.64532
C          8.56976        28.88832         0.03700
C          7.27755        29.54184         0.20242
C          8.43697        31.54649         1.25952
C          7.23704        30.92151         0.58719
C          8.48742        33.05664         1.08661
C          7.26616        33.74078         1.14860
C          8.47811        35.87376         1.48084
C          7.24877        35.15631         1.39986
C          8.46758        37.28986         1.77844
C          7.23273        37.92298         2.03950
C         10.87825         4.62140         3.21149
C          9.65730         5.14088         2.69855
C         10.96830         6.55753         1.15719
C          9.66947         6.13831         1.67194
C         11.02035         7.87096         0.33864
C          9.74816         8.56194         0.12538
C         11.05267        10.57954        -0.49794
C          9.82302         9.86121        -0.41287
C         11.07571        11.96217        -0.96737
C          9.90427        12.61560        -1.38070
C         11.09917        14.73109        -1.68448
C          9.87774        14.01705        -1.69118
C         11.07539        16.12986        -1.94665
C          9.89875        16.86121        -2.12563
C         11.13767        19.07345        -2.44092
C          9.92679        18.33072        -2.15530
C         11.17230        20.50153        -2.33266
C          9.97539        21.18164        -1.86969
C         11.10883        23.41419        -1.89113
C          9.89769        22.60059        -1.69718
C         11.09264        24.87932        -1.52744
C          9.82568        25.50327        -1.12353
C         11.08119        27.53260        -0.41465
C          9.85832        26.82694        -0.67468
C         11.04681        28.86295         0.05645
C          9.77819        29.49473         0.36021
C         11.04007        31.62856         0.95924
C          9.76836        30.83388         1.00291
C         10.99458        33.10800         0.97399
C          9.72442        33.78149         1.07346
C         10.89859        36.00503         1.03219
C          9.68358        35.19949         1.20566
C         10.91894        37.40053         1.52379
C          9.68970        38.00371         1.85470
C         13.36093         4.54810         3.31690
C         12.13137         5.07760         2.78159
C         13.42350         6.72242         1.44442
C         12.20133         6.12066         1.80277
C         13.47062         7.99145         0.81941
C         12.26987         8.63548         0.38683
C         13.47522        10.81814         0.23993
C         12.24700         9.98344        -0.00794
C         13.54237        12.06140        -0.60596
C         12.33030        12.67668        -1.00838
C         13.59049        14.71320        -1.51325
C         12.34680        14.03777        -1.43611
C         13.57885        16.17155        -1.74823
C         12.33595        16.78688        -2.28779
C         13.70368        18.75558        -2.92502
C         12.33483        18.20836        -2.74906
C         13.65461        20.91103        -2.83711
C         12.37843        21.35248        -2.42461
C         13.59359        23.39899        -1.73502
C         12.39387        22.69372        -1.94378
C         13.55959        24.74304        -1.11457
C         12.33463        25.53017        -1.08108
C         13.58918        27.55352        -0.40587
C         12.34050        26.84037        -0.60910
C         13.54842        28.94120        -0.03237
C         12.29605        29.59210         0.20548
C         13.49806        31.69652         0.64290
C         12.28917        30.97030         0.51747
C         13.47493        33.12416         0.90275
C         12.21259        33.79955         0.93176
C         13.45448        35.99407         1.21254
C         12.22238        35.27264         0.87969
C         13.40226        37.40121         1.47768
C         12.14569        38.06759         1.62741
C         15.81516         4.41484         3.33519
C         14.59038         4.97532         2.85968
C         15.94033         6.74628         1.67246
C         14.67883         5.92832         1.68334
C         15.96905         8.03781         1.08263
C         14.74136         8.70101         0.70248
C         16.00764        10.75832         0.18478
C         14.76667        10.03471         0.30003
C         16.00280        12.08754        -0.29683
C         14.78255        12.72367        -0.73777
C         16.08667        14.76085        -1.38049
C         14.81044        14.07760        -1.20741
C         16.11040        16.14703        -1.92151
C         14.85220        16.93148        -1.79358
C         16.08999        19.09768        -2.15797
C         14.86497        18.27580        -2.42097
C         16.08847        20.61876        -2.13918
C         14.86500        21.43778        -2.37459
C         16.12242        23.42559        -1.72615
C         14.85365        22.74932        -1.86076
C         16.07227        24.89667        -1.57073
C         14.86658        25.49508        -0.93620
C         16.06273        27.66195        -0.60301
C         14.82128        26.94439        -0.69562
C         16.04706        29.00417        -0.09900
C         14.77347        29.64983         0.15835
C         15.96295        31.72506         0.90040
C         14.73052        31.01474         0.52865
C         15.95100        33.19493         0.98955
C         14.68791        33.85932         1.01512
C         15.89870        35.99915         1.40085
C         14.66963        35.28995         1.22487
C         15.85945        37.41944         1.63202
C         14.61296        38.08862         1.69107
C         18.28212         4.31759         3.35806
C         17.04707         4.92300         2.93582
C         18.37326         6.77844         1.93403
C         17.10998         6.15239         2.16275
C         18.42577         8.05001         1.29389
C         17.20828         8.71693         0.94545
C         18.49956        10.70371         0.29994
C         17.24836        10.07820         0.48262
C         18.57409        12.13636        -0.00951
C         17.24267        12.86713        -0.33413
C         18.57807        14.77734        -1.42253
C         17.27443        14.13514        -1.09428
C         18.63538        16.24418        -1.63146
C         17.40548        16.92698        -2.05692
C         18.56959        19.13275        -1.90690
C         17.39155        18.40806        -2.08798
C         18.57972        20.59687        -1.96241
C         17.38281        21.33505        -2.10035
C         18.59180        23.55548        -2.03136
C         17.33021        22.77307        -1.98729
C         18.61469        24.97004        -1.60166
C         17.34163        25.70242        -1.52324
C         18.52995        27.71295        -0.69749
C         17.30028        27.03895        -0.89822
C         18.51276        29.07517        -0.25603
C         17.27031        29.68405         0.07066
C         18.50601        31.84994         0.57697
C         17.29024        31.02623         0.67884
C         18.44395        33.23506         0.89071
C         17.16565        33.89860         1.08671
C         18.35902        36.05748         1.42237
C         17.14089        35.32286         1.30171
C         18.31376        37.46574         1.69775
C         17.07148        38.12243         1.80165
C         19.49003         4.87583         3.04700
C         20.81064         6.72627         2.03557
C         19.57359         6.12520         2.33583
C         20.86548         7.95518         1.38389
C         19.69252         8.64733         1.02042
C         20.92826        10.58009         0.03219
C         19.72878         9.97622         0.42965
C         20.96570        11.89654        -0.48248
C         19.84071        12.69356        -0.49123
C         21.03003        14.93782        -0.78052
C         19.87291        14.07251        -1.05432
C         20.99625        16.27439        -1.00618
C         19.80635        16.96166        -1.47848
C         20.99552        19.13888        -1.59445
C         19.81377        18.41591        -1.67424
C         21.00717        20.54670        -1.67721
C         19.84108        21.28025        -1.83018
C         21.04849        23.49828        -1.36224
C         19.90670        22.76534        -1.92675
C         21.01010        24.83841        -1.14416
C         19.79516        25.61518        -1.27389
C         20.95772        27.77381        -0.76895
C         19.77887        27.03883        -0.92097
C         20.93782        29.12787        -0.40561
C         19.74262        29.80321        -0.13540
C         20.89745        32.00756         0.22729
C         19.72244        31.22417         0.22209
C         20.86014        33.34637         0.58538
C         19.65028        33.99185         0.91795
C         20.79418        36.16265         1.41818
C         19.62063        35.40996         1.25934
C         20.74579        37.53560         1.71776
C         19.53321        38.18606         1.84820
O          2.60508        10.31579         1.67158
O          8.68143        10.71620        -2.40341
O         11.51826        35.83101        -0.28866
O          3.77516         8.00808        -0.75659
O         19.42154        23.28001        -3.20608
O          4.10576        22.41087         0.62580
O         19.37696        14.05938        -2.44112
O         17.89979        13.00244         0.97949
O         13.75324        19.87030        -3.75474
O         10.59603        30.94288         2.21773
O         16.67534        31.07214         2.01721
O         12.24069        17.10922        -3.73742
O          6.99963        20.40345         0.08298
O          3.34946        25.27600        -1.67839
O         11.08366         6.56761        -0.30298
O         15.88279        19.84437        -0.87669
O          4.08946        35.90501         0.11857
O         16.51481        25.62257        -2.76016
O          1.96911        20.48775        -4.53098
O         16.73103        16.29330        -3.22929
O          1.22081         6.01207         0.99186
O         11.06201        24.44561        -2.95079
O          6.36851        15.30809        -3.73142
O          7.81108        27.43521        -1.83123
O         14.12052        16.86231        -0.53351
O          1.24869        15.19872        -4.03391
O          3.01164        26.59878         1.57558
O         14.31181        24.72838         0.17104
O          4.53763         4.76973         1.52579
O          6.67514         5.51806         0.13305
O          5.01153        24.79681         1.57207
H          4.24947        25.27319         1.98441
O          3.73672        18.56097        -4.54298
H          3.59830        19.45671        -4.93190
O          5.10025        13.69456         0.06732
H          4.36059        14.33896         0.10661
O          3.66901        22.17504        -3.45224
H          3.05822        22.79447        -3.90460
O          4.37779        17.60239        -0.43928
H          4.42064        18.35318         0.19254
O         14.79640         5.05353         0.49935
H         13.93644         4.59392         0.38872
O          8.14173        31.36338         2.68548
H          9.01688        31.30894         3.13994
O          1.55538        35.45908         0.08882
H          2.30777        35.53802        -0.54396
O         13.29277        11.33367         1.62201
H         14.08183        11.87819         1.83372
O          4.51961        29.74072        -1.51990
H          5.35428        30.07351        -1.91454
H          1.20302         4.50562         4.77477
H         -0.86557         5.80282         4.45602
H         -0.97506         7.65273         2.84011
H         -1.09871         8.89421         1.21219
H         -1.01277        11.00068         0.01382
H         -0.96794        12.23346        -1.47189
H         -0.85287        14.04025        -3.17687
H         -0.57559        16.90141        -4.41088
H         -0.45132        19.35206        -4.19346
H         -0.46828        21.20651        -3.54907
H         -0.71145        23.14742        -2.12560
H         -0.92423        24.66387        -0.78943
H         -1.02047        26.99762        -0.11323
H         -1.04924        28.79473         0.88016
H         -1.05004        31.17060         1.43148
H         -0.92238        32.89075         2.31323
H         -0.79269        35.15811         3.25220
H          0.37760        37.31814         3.50620
H          3.57922         4.61886         4.75549
H          2.40485        38.69502         3.26132
H          6.21475         4.29712         4.39284
H          4.79425        38.84380         2.74214
H          8.40521         4.04104         4.07870
H          7.22235        38.98839         2.31271
H         10.83019         3.84143         3.98561
H          9.67491        39.05807         2.16882
H         13.30526         3.77319         4.09682
H         12.15169        39.12737         1.92371
H         15.77720         3.57453         4.04551
H         14.59346        39.16862         1.89939
H         18.23651         3.37876         3.92939
H         17.04635        39.20489         1.99632
H         20.42433         4.38794         3.36149
H         21.74256         6.22226         2.32958
H         21.84990         8.39793         1.18006
H         21.87097        10.02033         0.08606
H         21.92273        12.29658        -0.84640
H         21.91909        14.48606        -0.31646
H         21.88970        16.86469        -0.76296
H         21.95811        18.62821        -1.46533
H         21.97797        21.05702        -1.62252
H         21.95396        22.94164        -1.08191
H         21.90637        25.32909        -0.74024
H         21.93158        27.30142        -0.95495
H         21.89948        29.65150        -0.32288
H         21.86382        31.56236        -0.04342
H         21.80154        33.91150         0.58321
H         21.77858        35.68675         1.31744
H         21.68532        38.09246         1.83950
H         19.49634        39.26255         2.06787
