         659
 CSIRO Nanostructure Databank - Neutral Graphene Oxide Data Set
C          5.86424        31.77400         0.38168
C          5.86615        33.14140         0.39679
C          8.32652        27.49491         0.19553
C          8.31137        28.89164         0.06477
C          7.10111        29.62615         0.23113
C          8.30877        31.74929        -0.00842
C          7.07643        31.01744         0.19837
C          8.29474        33.16103         0.08573
C          7.09180        33.89558         0.27594
C          8.26162        36.08774         0.15895
C          7.08976        35.31212         0.36952
C          8.33879        37.48081         0.24083
C         10.77523        23.19445         0.26116
C         10.77416        24.59101         0.12406
C          9.55679        25.35516         0.19113
C         10.71828        27.42620        -0.57998
C          9.50632        26.73239         0.00231
C         10.75502        28.92171        -0.40491
C          9.54300        29.62221        -0.22448
C         10.69529        31.78222        -0.83907
C          9.50764        31.03944        -0.27972
C         10.80854        33.19570        -0.30344
C          9.59317        33.88916         0.27867
C         10.77556        36.07668        -0.28147
C          9.48957        35.33139        -0.17553
C         10.80117        37.53058        -0.10075
C          9.57639        38.21787         0.11417
C         10.84904        40.33472         0.14583
C          9.63466        39.62558         0.27608
C         10.90790        41.77287         0.29021
C         13.20499        18.99228         1.03919
C         13.21628        20.31340         0.70362
C         12.00147        21.07296         0.50164
C         13.26228        23.23198         0.62770
C         11.98577        22.45294         0.38549
C         13.25324        24.63486         0.07528
C         12.02948        25.28431        -0.04994
C         13.27791        27.48515        -0.34711
C         11.99997        26.76329        -0.14326
C         13.27021        28.92662        -0.68635
C         12.00087        29.62902        -0.58871
C         13.24731        31.72650        -0.96562
C         11.98988        31.01381        -0.72372
C         13.24838        33.23361        -0.79657
C         11.98504        33.86834        -0.35535
C         13.31654        36.05783        -0.04892
C         12.01825        35.31074         0.00348
C         13.29983        37.50812        -0.28822
C         12.03969        38.21683        -0.20755
C         13.23776        40.41761        -0.64236
C         12.04807        39.62589        -0.15353
C         13.40143        41.67814         0.21328
C         12.10895        42.47101         0.27975
C         13.35975        44.62534         0.30682
C         12.17338        43.87981         0.45431
C         13.43977        45.97718         0.67606
C         15.60000        14.72415         0.30550
C         15.69414        16.08412         0.81474
C         14.54662        16.86915         0.76704
C         15.74005        19.00467         1.35297
C         14.42784        18.21298         1.45545
C         15.77033        20.36393         0.77273
C         14.50728        20.99239         0.41854
C         15.78398        23.23054         0.30099
C         14.51459        22.49614         0.22427
C         15.74169        24.64862         0.07803
C         14.50415        25.29741        -0.11631
C         15.76113        27.44156        -0.67345
C         14.47577        26.66432        -0.75543
C         15.74558        28.81207        -0.86519
C         14.49859        29.57345        -0.84716
C         15.71715        31.74398        -0.70477
C         14.53860        31.02101        -0.85941
C         15.74697        33.17514        -0.53526
C         14.53112        33.91168        -0.51373
C         15.76914        36.01462        -0.32442
C         14.54914        35.29830        -0.30361
C         15.73794        37.44145        -0.25599
C         14.53419        38.17077        -0.37294
C         15.83339        40.35659        -0.27099
C         14.60321        39.62723        -0.81526
C         15.87309        41.75434        -0.27525
C         14.57425        42.47247        -0.33119
C         15.87058        44.69200        -0.32833
C         14.56164        43.95619        -0.25392
C         15.84931        46.17490        -0.05032
C         14.63220        46.74366         0.59771
C         15.87304        48.77980         1.33369
C         14.70013        47.97106         1.25537
C         15.88025        49.92976         2.09639
C         18.09379        10.37149         0.02752
C         18.02021        11.76983         0.22864
C         16.74209        12.41762         0.09228
C         18.30636        14.63785         1.13086
C         16.47330        13.68690         0.64687
C         18.19245        16.06405         1.13966
C         16.96984        16.71980         1.17994
C         18.24804        18.92746         0.85080
C         17.01678        18.21387         1.29913
C         18.22775        20.36301         0.61945
C         16.97790        21.05989         0.56818
C         18.24182        23.18674         0.26634
C         16.99556        22.49980         0.33732
C         18.27442        24.69476         0.27922
C         16.98494        25.36639        -0.14705
C         18.23871        27.34424        -1.01687
C         16.98635        26.69298        -0.54178
C         18.31730        28.81950        -0.96797
C         17.02239        29.55142        -1.02875
C         18.26315        31.66979        -0.30283
C         17.01557        31.04416        -0.86228
C         18.27487        33.17418        -0.00004
C         16.98331        33.87715        -0.38620
C         18.25217        36.00521        -0.60505
C         16.98909        35.27121        -0.36138
C         18.23238        37.49663        -0.52857
C         17.01329        38.13069         0.14873
C         18.23812        40.30232         0.17547
C         17.02847        39.63254        -0.01811
C         18.29429        41.72209         0.09229
C         17.09293        42.47562        -0.10146
C         18.33706        44.57324         0.16611
C         17.13132        43.91725        -0.12584
C         18.42308        46.07581         0.25642
C         17.16083        46.89070         0.15252
C         18.33092        48.84360         1.34874
C         17.11426        48.36894         0.54616
C         18.31575        50.32891         1.54526
C         17.01891        50.85883         2.16283
C         18.36110        52.63019         0.81344
C         17.51318        51.40165         0.80749
C         18.18731        53.84307         0.16931
C         20.54050         6.11325        -0.42307
C         20.53899         7.51984        -0.28635
C         19.32578         8.23238        -0.12324
C         20.55994        10.34408        -0.09112
C         19.31514         9.63742        -0.02430
C         20.49993        11.80591        -0.15259
C         19.27074        12.51003         0.30539
C         20.59461        14.65767         0.22074
C         19.36551        13.89098         0.56627
C         20.62711        16.11858         0.51460
C         19.49823        16.81330         1.24491
C         20.68630        18.87382         0.27853
C         19.42275        18.24147         0.79717
C         20.69915        20.36473         0.45271
C         19.45214        21.06118         0.45666
C         20.73189        23.18313         0.21068
C         19.46455        22.49545         0.33357
C         20.74220        24.58471        -0.17070
C         19.53845        25.23760        -0.35156
C         20.81202        27.26149        -1.22601
C         19.51293        26.54968        -1.01606
C         20.79671        28.81123        -1.19030
C         19.51249        29.49650        -0.93718
C         20.87465        31.66020        -0.26652
C         19.54675        30.90057        -0.41726
C         20.76223        33.15262        -0.61197
C         19.54555        33.86792        -0.48251
C         20.74882        36.01006        -0.67087
C         19.53573        35.27051        -0.61285
C         20.77850        37.45068        -0.48698
C         19.52501        38.30824        -0.58244
C         20.77228        40.30346         0.28841
C         19.50271        39.50081         0.41683
C         20.80205        41.66678         0.31419
C         19.54020        42.40802         0.25224
C         20.76824        44.50791         0.71949
C         19.52640        43.79981         0.33670
C         20.48121        45.74395         1.47449
C         19.55753        46.63668         1.05308
C         20.91537        48.73786         1.83119
C         19.58454        48.03537         1.60889
C         20.89911        50.20910         2.04422
C         19.60802        50.95330         1.95504
C         20.76557        53.04613         1.16752
C         19.60971        52.33076         1.43694
C         20.61471        54.28140         0.45356
C         19.30878        54.73168         0.03415
C         20.33458        56.74479        -0.93299
C         19.18932        55.99394        -0.58500
C         20.28448        58.06028        -1.49249
C         22.94976         3.30182        -0.95453
C         21.75275         3.98382        -0.77011
C         22.98783         6.10686        -0.63378
C         21.74239         5.39690        -0.60882
C         23.00993         7.52315        -0.47938
C         21.78702         8.23783        -0.32550
C         23.06177        10.36357        -0.21393
C         21.79101         9.66221        -0.23281
C         23.10327        11.77497        -0.05997
C         21.85723        12.54356        -0.17841
C         23.08580        14.60703         0.44005
C         21.88772        13.95647         0.18063
C         23.09729        16.01372         0.76717
C         21.93302        16.76732         0.74326
C         23.10400        18.90982         0.93703
C         21.92956        18.19458         0.79319
C         23.16274        20.31568         0.60844
C         21.91693        21.04258         0.41948
C         23.20501        23.14272         0.03085
C         21.94159        22.47432         0.26957
C         23.24502        24.47135        -0.32398
C         22.02240        25.23903        -0.46914
C         23.33625        27.24637        -1.34396
C         22.05758        26.54804        -0.91902
C         23.34418        28.73001        -0.89608
C         22.05989        29.52180        -0.99998
C         23.23725        31.65965        -1.12368
C         22.07608        30.93412        -0.88006
C         23.13319        33.13970        -1.44205
C         21.94730        33.87175        -0.85070
C         23.22842        36.02319        -0.80480
C         21.96647        35.29102        -0.79181
C         23.24469        37.44796        -0.51451
C         21.98200        38.11110        -0.31222
C         23.30832        40.13833         0.59757
C         22.00715        39.47545         0.28310
C         23.25714        41.62136         0.98766
C         22.15848        42.39343         0.22124
C         23.29378        44.44475         1.55739
C         22.11715        43.86971         0.70139
C         23.42481        45.97427         1.43531
C         22.36767        46.72293         1.88472
C         23.40980        48.88026         1.47138
C         22.18263        48.14311         1.73417
C         23.38649        50.28357         1.43309
C         22.19816        51.04084         1.97796
C         23.19814        53.07122         0.87949
C         22.06856        52.41665         1.31750
C         23.12584        54.55889         0.60516
C         21.76778        54.99173         0.08128
C         22.78614        56.75384        -1.26572
C         21.62516        56.16565        -0.67418
C         22.66390        57.96025        -1.93795
C         21.45398        58.72043        -1.90163
C         22.63106        60.93714        -1.96921
C         21.51681        60.14158        -2.16808
C         24.16953         3.98856        -0.98000
C         25.44080         6.11426        -0.82250
C         24.20638         5.39025        -0.81778
C         25.47877         7.48194        -0.64135
C         24.26135         8.22047        -0.47247
C         25.53896        10.34092        -0.24069
C         24.28120         9.63325        -0.29527
C         25.55605        11.73761         0.03408
C         24.32068        12.46767         0.15616
C         25.56132        14.57926         0.60677
C         24.34349        13.88738         0.39575
C         25.62627        15.97053         0.91047
C         24.34863        16.65564         1.16569
C         25.62012        18.88464         1.19253
C         24.33409        18.19413         1.28897
C         25.59274        20.30962         0.98560
C         24.38444        20.97272         0.57387
C         25.73285        23.11205         0.18219
C         24.47179        22.31607        -0.11104
C         25.78413        24.43210        -0.20676
C         24.54609        25.06075        -0.83191
C         25.90354        27.15785        -1.19710
C         24.57249        26.56715        -0.79035
C         25.88000        28.71677        -1.29370
C         24.57291        29.45919        -1.44386
C         25.69403        31.65496        -0.82078
C         24.53139        30.99687        -1.58748
C         25.75021        33.14006        -0.97963
C         24.45222        33.87850        -1.24213
C         25.70371        35.99635        -1.01802
C         24.41139        35.31510        -0.94116
C         25.69401        37.51489        -0.84891
C         24.45019        38.17564        -0.44902
C         25.74621        40.24346         0.06863
C         24.55237        39.52910         0.06268
C         25.87304        41.58777         0.77104
C         24.57316        42.34321         0.81567
C         25.86639        44.53808         0.88806
C         24.60559        43.73414         1.22212
C         25.80621        46.00803         0.74027
C         24.62087        46.69479         1.04996
C         25.83161        48.83720         0.95760
C         24.61489        48.13709         1.13332
C         25.85129        50.29998         1.36924
C         24.55244        51.02332         1.10233
C         25.65296        53.13165         0.38805
C         24.49215        52.40395         0.81705
C         25.59180        54.46136        -0.07084
C         24.28077        55.06471        -0.23101
C         25.91651        57.34825        -1.17749
C         24.05403        56.07901        -1.12625
C         25.65540        58.73621        -1.17509
C         24.49114        59.28617        -1.77354
C         23.95011        60.55765        -1.57132
C         26.82715         8.16763        -0.61873
C         27.95831        10.39672        -0.52002
C         26.76960         9.66752        -0.45228
C         27.98461        11.77901        -0.25406
C         26.79569        12.42604         0.10163
C         28.11623        14.54174         0.79925
C         26.81671        13.81468         0.60934
C         28.12721        16.03876         0.86077
C         26.83669        16.70328         0.99623
C         28.07116        18.83259         1.49689
C         26.80779        18.13758         1.18108
C         27.93999        20.37500         1.70485
C         26.76553        21.05721         1.16488
C         28.14223        23.07027         0.74708
C         26.90232        22.42084         0.71734
C         28.32505        24.41239         0.08252
C         27.03007        25.19182        -0.15163
C         28.37126        27.27554        -0.48231
C         27.07718        26.53289        -0.46148
C         28.38186        28.78376        -0.58283
C         27.12631        29.51621        -0.95255
C         28.17034        31.72605        -0.01466
C         26.95694        30.93738        -0.44581
C         28.12328        33.13222        -0.01112
C         26.93552        33.87325        -0.47304
C         28.05255        36.06896        -0.10860
C         26.92058        35.24088        -0.63265
C         28.13920        37.48451        -0.60230
C         26.97301        38.21345        -0.63089
C         28.16962        40.33832        -0.48051
C         26.97131        39.64158        -0.40966
C         28.23482        41.75600        -0.24830
C         27.02600        42.44026         0.24083
C         28.10038        44.59784        -0.40017
C         26.99234        43.80445         0.27650
C         28.17739        46.05210         0.01882
C         27.01266        46.72747         0.43478
C         28.28037        48.85125         0.47709
C         27.03414        48.15831         0.63696
C         28.33039        50.32438         0.58206
C         27.08035        51.06963         0.89821
C         28.16917        53.15040         0.01203
C         26.89850        52.33872         0.08449
C         28.06683        54.54896        -0.09871
C         26.83294        55.21289        -0.26995
C         26.88410        56.63723        -0.45944
C         29.24621        12.58074        -0.50830
C         30.34494        14.81886        -0.22375
C         29.44854        13.81458         0.41068
C         30.67557        16.04203         0.58189
C         29.32156        16.73233         0.84386
C         30.71396        18.85821         1.02190
C         29.32022        18.25340         0.81328
C         31.01917        20.01150         1.67473
C         29.13851        21.17455         1.83647
C         30.61695        23.12082         1.47401
C         29.30976        22.42872         1.29628
C         30.66402        24.56771         1.14605
C         29.34136        25.27549         0.86595
C         30.64592        27.44935         0.68282
C         29.54471        26.61871         0.17363
C         30.63514        28.84481         0.57120
C         29.44243        29.53832         0.14109
C         30.45380        31.48715         1.09215
C         29.33561        30.91922         0.38136
C         30.51037        33.51779         0.83236
C         29.31223        33.97944         0.17484
C         30.59974        36.04155        -0.27116
C         29.33396        35.31892        -0.15654
C         30.57298        37.51520        -0.25641
C         29.40394        38.16642        -0.52417
C         30.70116        40.32779        -0.68800
C         29.39992        39.60684        -0.95253
C         30.64541        41.78981        -1.05999
C         29.40672        42.44527        -0.46592
C         30.60323        44.63908        -0.90095
C         29.46507        43.91621        -0.15106
C         30.61998        46.08598        -0.47670
C         29.41386        46.75047        -0.14572
C         30.66259        48.91295        -0.19094
C         29.43774        48.17714         0.07662
C         30.62711        50.34299        -0.29518
C         29.46707        51.05288        -0.04134
C         29.38224        52.47203        -0.13408
C         31.60964        16.94677        -0.19186
C         32.75643        19.12545        -0.40414
C         31.73189        18.29879         0.11749
C         33.04509        20.43711         0.15889
C         32.16271        20.89433         1.35387
C         33.19789        23.20786         1.17279
C         32.01939        22.38636         1.52459
C         33.12431        24.61582         1.79330
C         31.81589        25.27244         1.31462
C         33.11742        27.50153         1.22588
C         31.79584        26.75281         1.25158
C         33.10281        28.93421         0.91405
C         31.84529        29.59203         0.84534
C         32.97804        31.80327         1.40703
C         31.76460        30.98887         1.06213
C         32.98252        33.34083         1.21633
C         31.78355        34.00850         0.65782
C         33.08811        36.14708         0.36028
C         31.90165        35.32591         0.00725
C         33.05179        37.51163         0.32175
C         31.74696        38.28009         0.29477
C         33.13119        40.35753        -0.23548
C         31.83296        39.68890        -0.26696
C         33.17350        41.76481        -0.69335
C         31.91561        42.54102        -0.73879
C         33.15172        44.66024        -0.50112
C         31.91693        43.90548        -0.69724
C         33.08430        46.08379        -0.47236
C         31.86194        46.78731        -0.45607
C         31.84753        48.21419        -0.38964
C         33.74696        21.50632        -0.52504
C         35.13589        23.46679        -0.52454
C         34.03129        22.75831         0.09538
C         35.86021        24.49342         0.11022
C         34.33978        25.43848         1.44508
C         35.48364        27.48331         0.32287
C         34.37676        26.74957         1.09349
C         35.53734        28.97116         0.65914
C         34.31180        29.64620         0.93479
C         35.53023        31.84882         0.97537
C         34.33965        31.06120         1.48038
C         35.57027        33.32456         1.33003
C         34.27470        34.05692         1.00458
C         35.54623        36.16328         0.68080
C         34.29865        35.40238         0.70535
C         35.54221        37.54465         0.58492
C         34.25705        38.31831         0.74992
C         35.56272        40.42084         0.21551
C         34.28880        39.71251         0.14912
C         35.61570        41.79945         0.06496
C         34.47610        42.54989        -0.45818
C         34.36019        43.99869        -0.30801
C         36.71837        25.45955        -0.38587
C         37.94633        27.64528        -0.16456
C         36.87199        26.76082         0.39259
C         37.89777        29.04362        -0.07445
C         36.68502        29.72102         0.39807
C         37.86536        31.91656         0.19070
C         36.66311        31.17776         0.52357
C         37.94180        33.29585         0.40043
C         36.77636        34.03936         0.76809
C         38.01821        36.14831         0.42194
C         36.78547        35.42581         0.64504
C         38.00757        37.53891         0.40946
C         36.78460        38.27572         0.49806
C         36.76817        39.67178         0.43516
C         39.01356        29.78488        -0.47518
C         40.31786        31.91634        -0.34444
C         38.97869        31.26843        -0.59696
C         40.39410        33.22743        -0.04426
C         39.18678        34.01377         0.17521
C         39.22431        35.38827         0.24813
O         35.49462        24.65659         1.47407
O         25.27875        28.97231        -2.61380
O         27.51066        13.91488         1.95589
O         20.35948        15.67160        -0.84344
O         12.72145        27.32918         1.01015
O         28.18145        29.34610        -1.93769
O         27.93512        19.39631         2.81314
O         12.66046        35.65963         1.24782
O         31.45541        35.47774        -1.37403
O         25.62858        44.05324         2.28264
O         18.01039        36.86540        -1.81601
O         25.40232        33.58649        -2.32405
O         17.29696        13.95696         1.78441
O         34.06654        42.04802        -1.80275
O         21.73568        44.75025        -0.39934
O         18.76557        30.91613         0.85701
O         21.31572        46.06762         2.53663
O         29.42922        26.63677        -1.30274
O         18.52855        48.18445         2.63774
O         30.23193        32.62001         1.87193
O         25.08061        56.52307        -1.96748
O         18.06859        46.74751        -0.99400
O         20.82873        28.03149        -2.44930
O         14.28132        43.24387        -1.52136
O         14.45431        21.61539        -0.92902
O         28.11462        51.00357         1.91320
O         32.37050        27.31417         2.48683
O         17.09977        30.46828        -2.20132
O         22.63919        39.33220         1.63635
O         10.06179        35.60617        -1.48398
O         15.77043        45.67686        -1.41518
O         24.25331        17.32784         2.46298
O         13.17472        32.64688        -2.14050
O         14.86348        39.50241        -2.19247
O         25.74713        36.88871        -2.18634
O         20.13097        50.63154         3.26931
O         16.54967        18.80381         2.57470
O         33.46019        20.39141         1.60756
O         32.82870        32.71600         2.53438
O         18.67996        26.63402        -2.23447
O         30.13065        20.57249         2.60213
O         31.29560        22.78328         2.72552
O         21.08178        12.31314        -1.40812
O         25.84209        31.10944         0.52168
O         23.75643        58.46220        -2.65439
O         35.08737        27.41225        -1.07850
H         34.32297        28.01098        -1.21456
O         24.67819        31.30406        -2.98660
H         25.11993        30.53446        -3.42009
O         26.66980        51.81711        -1.27670
H         26.57205        52.58593        -1.87841
O          9.80552        33.96300         1.72569
H          9.72974        33.05780         2.09407
O         10.44544        31.93588        -2.28056
H         11.27121        32.31789        -2.66666
O         38.66491        31.54620        -2.02368
H         38.73144        32.51775        -2.14614
O         18.30283        33.33733         1.45052
H         18.51609        32.46055         1.84657
O         23.38208        27.19200        -2.79243
H         23.39714        26.23709        -3.03444
O         22.99730        44.15640         2.93217
H         23.83543        44.25226         3.43448
O         27.57545         7.82418        -1.79749
H         27.09734         8.17500        -2.57645
O         22.83085        33.20266        -2.86570
H         23.60880        32.81060        -3.33461
O         21.21954        31.64259         1.15111
H         20.37654        31.57214         1.65657
O         17.02875        51.70034         3.27379
H         17.91016        52.11720         3.35559
O         27.76058        36.24100         1.33877
H         27.86146        35.36735         1.77543
O         34.59484        30.85925         2.91764
H         33.81984        30.39245         3.29866
O         28.87835        24.08367        -1.21409
H         29.02786        24.93758        -1.69524
O         17.08283        49.10399        -0.70086
H         17.46979        48.52015        -1.39424
O         29.02879        18.62704        -0.58365
H         29.72050        18.22229        -1.15239
O         14.26420        26.42777        -2.18916
H         15.06869        25.99804        -2.55016
O         31.41769        38.46033         1.71756
H         32.26159        38.70658         2.17677
O         30.33738        44.63295        -2.33414
H         30.44979        43.69561        -2.65169
O         30.40212        11.75741        -0.40621
H         30.77638        11.90791         0.49158
O         23.27610        55.20654         1.91849
H         22.70276        54.72676         2.55364
O         30.49351        41.90337        -2.51898
H         29.87368        41.17713        -2.79863
O         23.56817        28.63930         0.54736
H         23.58392        29.54561         0.92638
O         10.65743        27.19253        -2.02641
H          9.86564        27.65528        -2.37331
O         18.38967        25.07022         1.71073
H         19.08144        24.50049         2.11100
O         31.32258        15.72174         1.82951
H         31.05312        14.80153         2.06983
O         24.57348        24.65389        -2.26877
H         25.35873        25.14028        -2.64799
O         29.78828        44.04834         1.25780
H         29.10501        43.56949         1.77359
O         17.10078        37.82751         1.57200
H         17.90679        38.26763         1.94165
O         14.19424        17.88202         2.85696
H         15.06978        17.95308         3.30929
O         35.73048        33.38482         2.78826
H         35.18177        32.65575         3.17186
O         22.89957        41.68789         2.38259
H         23.47214        41.05990         2.87177
O         26.18689        26.69748        -2.57625
H         25.62092        27.25948        -3.16298
O         33.11615        24.55380         3.23271
H         32.40359        23.92746         3.50622
O         19.88282        16.80685         2.65222
H         19.23304        17.34836         3.14888
O         12.81257        40.81220        -1.95164
H         13.51175        40.42749        -2.56645
O         13.72364        41.24049         1.55886
H         13.58951        41.98915         2.17605
O         19.50784        38.98480         1.78086
H         20.43611        38.95930         2.10491
O         37.24715        26.55325         1.76753
H         36.76639        25.75453         2.09445
O         28.72809        25.55032         2.14994
H         29.41370        25.90066         2.75746
O         29.26954        39.53220        -2.42957
H         29.89388        38.84715        -2.75343
O         27.76295        44.57890        -1.80725
H         28.58388        44.82586        -2.30964
O         24.55739        21.97541        -1.53597
H         24.57526        22.83456        -2.03477
O         26.19181        41.28497         2.18076
H         26.17450        42.15693         2.64634
O         13.38186        23.37546         2.08072
H         12.66758        23.97499         2.38422
O         22.55474        42.39221        -1.15990
H         22.12072        43.16749        -1.58638
O         30.02017        13.33974         1.65518
H         29.26071        13.15525         2.25933
O         19.57674        38.93624        -1.88353
H         19.18297        38.30265        -2.52723
O         34.10831        38.54900         2.20889
H         34.34974        37.71367         2.66522
O         20.69883        18.63890        -1.17438
H         19.91658        19.08792        -1.55877
O         22.57755        51.33857         3.35468
H         21.75706        51.26458         3.89759
O         25.90420        50.24396         2.82883
H         26.85279        50.36097         3.07848
H          4.92085        31.22359         0.51309
H          4.92344        33.69107         0.53523
H          7.40321        26.97867         0.50126
H          6.16583        29.07066         0.39844
H          6.13880        35.82470         0.58026
H          7.42436        38.05222         0.46368
H          9.81652        22.65363         0.27799
H          8.63241        24.82185         0.46397
H          8.70869        40.18192         0.48737
H          9.96173        42.32560         0.40087
H         12.24028        18.48781         1.20344
H         11.04773        20.52217         0.48925
H         11.24847        44.41801         0.71710
H         12.55739        46.44981         1.13486
H         14.76163        14.50860        -0.37333
H         13.60928        16.39180         0.44076
H         13.79982        48.32757         1.78027
H         14.98970        50.18186         2.69190
H         17.15279         9.80956        -0.06619
H         15.96842        11.89646        -0.49041
H         16.92093        51.16738        -0.09147
H         17.23551        54.09940        -0.31719
H         19.58479         5.56904        -0.39385
H         18.37499         7.67975        -0.10578
H         18.19016        56.38164        -0.83324
H         19.31871        58.58601        -1.53553
H         22.94062         2.21004        -1.08041
H         20.80026         3.43511        -0.75014
H         22.44959        62.02443        -2.00018
H         20.55853        60.65644        -2.34037
H         25.10921         3.43654        -1.12407
H         26.38137         5.56309        -0.96886
H         26.27196        59.38428        -0.53593
H         24.56565        61.32158        -1.07340
H         27.41425         7.75021         0.24619
H         28.90020         9.88607        -0.76611
H         28.99332        55.13911        -0.17055
H         27.76825        57.16910        -0.07482
H         29.17522        12.94604        -1.57395
H         30.18344        14.98245        -1.30421
H         31.53300        50.86899        -0.63175
H         30.29623        53.04415        -0.35605
H         32.38063        16.46916        -0.81485
H         33.37425        18.75697        -1.23469
H         34.02306        46.65325        -0.39894
H         32.79113        48.76387        -0.52112
H         34.21490        21.28188        -1.49541
H         35.44817        23.13046        -1.52391
H         36.55163        42.33581         0.28267
H         35.25305        44.57287        -0.01684
H         37.01586        25.43525        -1.44377
H         38.86715        27.17561        -0.54384
H         38.95143        38.09044         0.28519
H         37.72461        40.21513         0.40858
H         39.90953        29.25360        -0.83112
H         41.22870        31.32501        -0.52059
H         41.36791        33.73152         0.04879
H         40.17853        35.92114         0.12119
