         314
 CSIRO Nanostructure Databank - Neutral Graphene Oxide Data Set
C         30.55017        56.89315        -1.49519
C         30.44666        58.29218        -1.25535
C         29.30113        59.12267        -1.44456
C         30.44078        61.40113        -1.46420
C         29.35513        60.52344        -1.59624
C         33.17310        52.76059        -1.28372
C         33.13785        54.14458        -1.23410
C         31.88525        54.82022        -1.37973
C         33.05382        56.98482        -1.36979
C         31.78411        56.21213        -1.35175
C         32.95074        58.51182        -1.12172
C         31.61680        58.92276        -0.76140
C         32.94247        61.51970        -0.83847
C         31.64542        61.06409        -0.77687
C         35.38138        48.44002        -0.31731
C         35.35782        49.87471        -0.14079
C         34.36820        50.56170        -0.80023
C         35.60038        52.78541        -0.58138
C         34.40246        52.01136        -1.04609
C         35.51469        54.25847        -0.49297
C         34.34318        54.91562        -0.91568
C         35.46539        57.07635        -0.58982
C         34.32511        56.33613        -0.96904
C         35.47370        58.56030        -0.61409
C         34.17783        59.32209        -0.80548
C         35.38100        61.42498        -0.22633
C         34.04869        60.73116        -0.16251
C         37.80236        44.29886         0.54021
C         37.63626        45.65086         0.85281
C         36.51060        46.26667         0.24506
C         37.64021        48.68861         1.63785
C         36.05823        47.57052         0.52076
C         37.66053        49.96916         1.15552
C         36.42295        50.63457         0.62201
C         37.83092        52.85817         0.58654
C         36.56236        52.11092         0.34704
C         37.84702        54.26640         0.37563
C         36.65684        54.97790        -0.07061
C         37.81236        57.14112         0.26219
C         36.63355        56.40192        -0.11727
C         37.80303        58.58324         0.26169
C         36.61785        59.28340        -0.04149
C         37.79685        61.43390         0.17825
C         36.57648        60.72726        -0.02845
C         40.28491        40.15420        -0.16763
C         40.25134        41.50547         0.24543
C         39.03231        42.21330         0.31018
C         40.18827        44.19148         1.21026
C         38.99916        43.55297         0.72031
C         40.05354        45.56625         1.76561
C         38.72043        46.30939         1.66933
C         40.12327        48.51729         1.96830
C         38.80179        47.84284         1.98158
C         40.12523        49.98736         1.99693
C         38.82444        50.78582         1.54688
C         40.15602        52.90447         1.36591
C         38.95571        52.19407         1.11057
C         40.17755        54.28997         1.13701
C         39.02577        54.99742         0.68114
C         40.18951        57.20743         0.82563
C         39.00418        56.45411         0.60307
C         40.21766        58.62032         0.74828
C         39.00664        59.31495         0.51044
C         40.21839        61.47377         0.54858
C         39.00405        60.75843         0.42158
C         42.69304        35.93820        -1.09096
C         42.74318        37.41268        -0.77896
C         41.54120        38.10167        -0.68975
C         42.73774        40.16955        -0.08590
C         41.50326        39.47033        -0.30375
C         42.71538        41.52870         0.33949
C         41.47060        42.19444         0.55750
C         42.69391        44.15701         1.48617
C         41.41562        43.52215         1.09163
C         42.66151        45.64556         1.87022
C         41.34772        46.35853         1.98530
C         42.56767        48.54992         1.60569
C         41.34072        47.83777         1.83932
C         42.54486        49.98988         1.57176
C         41.37995        50.70505         1.81760
C         42.66719        52.89304         1.76062
C         41.34144        52.20646         2.05650
C         42.66681        54.37492         1.89114
C         41.38839        55.07004         1.50135
C         42.72624        57.23437         1.02953
C         41.45310        56.46421         0.96884
C         42.66328        58.70463         1.06303
C         41.46283        59.36709         0.90457
C         42.65787        61.54277         0.72419
C         41.45767        60.82243         0.76956
C         45.26748        33.47230        -2.39697
C         44.05161        34.09827        -2.12278
C         45.22528        35.95163        -1.08271
C         44.02224        35.33889        -1.46656
C         45.25444        37.31493        -0.43294
C         43.96612        38.07920        -0.51853
C         45.20951        40.22673        -0.23830
C         43.97273        39.47777        -0.27168
C         45.16596        41.59579         0.12732
C         43.95535        42.23182         0.49489
C         45.16311        44.28684         1.16203
C         43.96673        43.58066         0.98513
C         45.14074        45.65976         1.72594
C         43.87428        46.42646         1.67459
C         45.07354        48.54703         1.47187
C         43.84437        47.83694         1.55152
C         45.09964        49.97823         1.18411
C         43.78475        50.73923         1.23968
C         45.13887        52.88554         1.46003
C         43.80672        52.20867         1.47716
C         45.25002        54.36798         1.66078
C         43.97746        55.14086         1.85117
C         45.21990        57.28523         1.07152
C         43.98355        56.59579         1.52518
C         45.18161        58.65573         0.93866
C         43.93913        59.41269         1.24517
C         45.21949        61.58052         0.65760
C         43.94847        60.93686         1.02011
C         46.46345        34.06654        -1.98876
C         47.72953        35.88632        -0.78033
C         46.45146        35.30387        -1.33358
C         47.74556        37.39409        -0.75001
C         46.45292        38.14233        -1.04699
C         47.66895        40.22511        -0.34872
C         46.45519        39.56404        -0.50355
C         47.70692        41.68111        -0.16346
C         46.38690        42.41375         0.08968
C         47.65337        44.37658         0.95631
C         46.42252        43.72187         0.77538
C         47.70376        45.76515         1.39264
C         46.42997        46.41095         1.81659
C         47.64989        48.67246         1.76328
C         46.35630        47.90666         1.83588
C         47.60615        50.07333         1.26967
C         46.38752        50.70840         1.17285
C         47.61144        52.91343         0.75330
C         46.31866        52.15647         0.87898
C         47.64848        54.38144         0.96631
C         46.47014        55.09654         1.21317
C         47.64276        57.20056         0.72617
C         46.45359        56.53018         0.98955
C         47.61774        58.57333         0.21856
C         46.32762        59.37942         0.37083
C         47.64585        61.52776         0.30625
C         46.40893        60.86819         0.45184
C         48.89582        38.06480        -0.49933
C         50.10453        40.17095        -0.04647
C         48.92340        39.50589        -0.31921
C         50.14569        41.57561         0.27578
C         48.93673        42.32414         0.29401
C         50.13812        44.31411         0.98457
C         48.91168        43.68131         0.71294
C         50.18882        45.69935         1.55757
C         48.88777        46.45404         1.47318
C         50.11225        48.61186         1.05630
C         48.99266        47.92927         1.83600
C         50.06028        49.97658         0.82227
C         48.85210        50.75862         0.99683
C         50.09794        52.87183         0.66482
C         48.87328        52.15021         0.80075
C         50.08687        54.30166         0.67650
C         48.90399        55.04333         0.82189
C         50.15082        57.25800         0.57750
C         48.93893        56.53361         1.10553
C         50.15320        58.59477         0.30436
C         48.90138        59.32097         0.02498
C         50.22340        61.53604         0.11074
C         48.91488        60.86025         0.01973
C         51.35786        42.22838         0.55338
C         52.59760        44.32573         0.98362
C         51.37341        43.61258         0.85526
C         52.62342        45.74746         0.98085
C         51.39222        46.47009         1.08176
C         52.55918        48.51859         0.50882
C         51.34706        47.86259         0.86655
C         52.55689        49.90302         0.05525
C         51.21789        50.68442         0.22530
C         52.51957        52.78479         0.12389
C         51.30627        52.14807         0.38576
C         52.64762        54.24531         0.31431
C         51.38437        55.01069         0.63029
C         52.66788        57.15713         0.05697
C         51.37047        56.46610         0.30286
C         52.71091        58.62732         0.33273
C         51.41920        59.37225         0.31701
C         52.67660        61.47137        -0.20303
C         51.43047        60.83703         0.03629
C         53.83659        46.46071         0.83838
C         55.02536        48.59943         0.46369
C         53.81711        47.85294         0.61299
C         55.07221        49.96865         0.13830
C         53.81535        50.64791        -0.08424
C         54.79411        52.81187        -0.73912
C         53.69971        52.05440        -0.25302
C         54.96831        54.20563        -0.57478
C         53.86705        54.95693        -0.15264
C         55.08313        57.06297        -0.46585
C         53.93492        56.38951        -0.09801
C         55.18824        58.53386        -0.30218
C         53.99415        59.34717         0.07940
C         55.12035        61.43121        -0.61891
C         53.94280        60.80106        -0.25893
C         56.35960        50.63419         0.21022
C         57.67978        52.78434        -0.28270
C         56.65898        51.81997        -0.45964
C         57.58096        54.13743        -0.73418
C         56.26691        54.82684        -0.97952
C         57.56521        57.08352        -0.95269
C         56.27979        56.34993        -0.95110
C         57.57784        58.47782        -1.04564
C         56.27907        59.24886        -1.07695
C         57.58515        61.33927        -1.35339
C         56.45207        60.70749        -0.58545
C         58.74660        54.91190        -0.78849
C         59.98995        57.03363        -1.17494
C         58.78274        56.33447        -0.98446
C         60.00276        58.43600        -1.37944
C         58.78233        59.17447        -1.28400
C         59.97098        61.22544        -1.96514
C         58.75675        60.60609        -1.54031
C         61.19494        59.13564        -1.72501
C         61.15828        60.49767        -2.02879
O         46.71624        58.79503        -0.91229
O         42.29944        56.60018        -0.23981
O         39.18532        50.58688         2.93577
O         55.73478        52.14928        -1.49866
O         55.00517        58.97620         1.09201
O         52.30442        54.66228         1.70880
O         51.80697        56.77593        -1.08410
O         35.10058        59.22416        -1.90646
O         46.94540        48.53432         3.05212
O         44.03512        56.15086         2.91398
O         42.79864        44.58646         2.87529
O         56.11472        55.59317        -2.21501
O         44.00824        60.30342         2.38201
O         36.41792        48.05918         1.78888
O         46.33661        38.19913        -2.42431
O         46.76492        52.57039        -0.43958
O         41.75993        54.91294         2.91355
O         47.02675        42.43916        -1.22868
O         45.49514        53.43833         2.78150
O         40.60172        45.79508         3.09464
O         33.04875        57.92595        -2.46211
O         38.40552        46.84226         2.97336
O         35.89059        51.63132         1.56498
O         31.44954        59.94993         0.13381
O         52.12111        59.04579         1.59668
O         48.92966        60.02412        -1.22783
O         35.56563        52.32846        -1.96672
O         51.62627        50.16808        -1.06060
O         45.87220        45.78614         3.01963
O         44.32321        50.34108        -0.05927
O         45.60029        37.17373         0.97934
H         44.81698        36.80556         1.44155
O         33.76789        60.53441         1.25242
H         32.79205        60.47744         1.36815
O         49.06354        56.66702         2.56928
H         48.33727        56.14831         2.97793
O         47.85915        35.43611         0.58960
H         47.14883        35.89485         1.09800
O         56.92951        60.71470         0.78857
H         56.26047        60.22705         1.33226
O         49.42693        47.99359         3.23296
H         48.59718        48.03468         3.77101
O         41.12834        52.34978         3.48372
H         41.19381        53.31333         3.69467
O         50.42547        45.50960         3.00262
H         50.25125        46.39358         3.42141
O         55.83892        59.32715        -2.45672
H         55.90456        58.43401        -2.85707
O         42.20330        35.26509         0.08918
H         42.28674        34.30048        -0.05976
H         29.63770        56.30946        -1.68290
H         28.36422        58.62768        -1.73919
H         30.36431        62.39719        -1.92177
H         28.43495        60.97629        -2.00035
H         32.23566        52.20130        -1.42141
H         30.97615        54.21554        -1.51332
H         33.20409        62.35544        -1.50186
H         34.90576        48.03749        -1.22362
H         33.57269        49.98920        -1.30099
H         35.39575        62.52439        -0.18843
H         36.97154        43.78907         0.03015
H         36.01537        45.70300        -0.55991
H         37.79062        62.53313         0.14027
H         39.34030        39.63346        -0.38272
H         38.10170        41.72188        -0.00801
H         40.20231        62.56907         0.44827
H         41.95475        35.76766        -1.92973
H         40.59440        37.57107        -0.86734
H         42.63475        62.59250         0.39469
H         45.28171        32.50595        -2.91977
H         43.10571        33.62450        -2.42632
H         45.23004        62.67587         0.55131
H         47.42212        33.56454        -2.18369
H         48.61337        35.48782        -1.33972
H         47.67698        62.61012         0.50276
H         49.83924        37.51193        -0.36603
H         51.04951        39.60812        -0.02851
H         50.23741        62.63644         0.07585
H         52.30540        41.67331         0.49609
H         53.54743        43.77468         0.91679
H         52.66851        62.55209        -0.41199
H         54.79359        45.92033         0.84552
H         55.97518        48.06871         0.62694
H         55.10696        62.50956        -0.84185
H         57.12617        50.17338         0.85017
H         58.60799        52.48409         0.22645
H         57.57549        62.42025        -1.56389
H         59.71099        54.39799        -0.65775
H         60.93638        56.47539        -1.22707
H         59.97175        62.30072        -2.19442
H         62.14367        58.58362        -1.78808
H         62.08645        61.00789        -2.32297
