         300
 CSIRO Nanostructure Databank - Neutral Graphene Oxide Data Set
C         30.88137        31.85819        -2.26963
C         30.91234        33.12010        -2.23491
C         31.55501        36.27753        -2.57170
C         31.93840        37.39818        -2.92148
C         32.95883        40.30731        -3.75073
C         32.91734        41.55127        -3.78632
C         33.08524        28.93697        -1.62620
C         32.01354        29.57942        -1.76314
C         32.97173        31.65105        -1.02800
C         31.81180        30.95890        -1.76059
C         32.83587        33.09685        -0.66423
C         31.71048        33.93472        -1.30962
C         33.04474        36.11054        -0.67879
C         31.95056        35.39377        -1.47149
C         33.36900        37.53547        -1.02323
C         33.26391        37.99734        -2.50528
C         34.16384        40.32541        -1.59408
C         33.58809        39.47182        -2.71808
C         34.24476        41.84713        -1.68839
C         32.82409        42.56627        -2.74022
C         33.94305        44.56224        -1.84334
C         33.41021        43.92004        -2.75516
C         35.39036        27.29309        -0.22529
C         35.45933        28.70520        -0.67331
C         34.41726        29.49893        -1.38253
C         35.63254        31.72922        -0.60435
C         34.38187        31.07503        -1.37067
C         35.22214        32.91904         0.31772
C         34.21948        33.86816        -0.51477
C         35.24616        35.94906         0.50161
C         34.12214        35.32362         0.00782
C         35.28619        37.43243         0.74839
C         34.33485        38.23692        -0.10513
C         35.24840        40.44874         0.67547
C         34.19342        39.75051        -0.18360
C         35.30625        41.95833         0.60559
C         34.26401        42.63518        -0.33635
C         35.71635        44.81772         0.08277
C         34.56945        44.14534        -0.57977
C         36.38876        46.05426        -0.32214
C         37.73626        27.07674         0.56127
C         36.41470        26.67868         0.10208
C         37.73090        28.62720         0.54152
C         36.53863        29.42113         0.08203
C         37.79451        31.47031         0.59071
C         36.57336        30.78682         0.12944
C         37.72522        32.86218         1.20941
C         36.43467        33.67801         0.91378
C         37.76222        35.95721         0.94254
C         36.43135        35.18128         0.99946
C         37.74300        37.38237         1.55357
C         36.40108        38.15062         1.55676
C         37.23974        40.57094         2.03206
C         36.52685        39.68346         1.04519
C         37.48193        41.90314         1.86036
C         36.54817        42.68235         1.06030
C         37.76243        44.76658         1.69278
C         36.66440        44.04334         0.96163
C         37.83770        46.32713         1.55785
C         37.41517        46.57594         0.12833
C         40.31062        24.34472        -0.09120
C         39.23985        25.01323         0.07888
C         40.27622        27.12670         0.40198
C         38.98857        26.37219         0.28107
C         40.27918        28.58162        -0.00275
C         39.00358        29.34120         0.19831
C         40.27661        31.42469         0.84837
C         38.97978        30.79565         0.52396
C         40.25081        32.89308         1.33426
C         38.99383        33.67479         0.96962
C         40.27912        35.88190         1.32103
C         38.95017        35.11023         1.52538
C         40.21321        37.23052         2.01309
C         38.90961        37.93561         2.02183
C         40.11995        40.13426         2.10409
C         39.05448        39.33722         2.42730
C         39.98750        41.63449         1.76445
C         38.82311        42.43146         2.43685
C         40.29251        44.63617         2.38902
C         38.92151        43.97287         2.25252
C         40.40298        46.13270         2.31056
C         39.15467        46.91760         1.97405
C         40.51915        48.97207         1.99728
C         39.45630        48.22072         2.11583
C         42.89691        24.34000         0.14094
C         41.56054        24.55922         0.69658
C         42.83007        27.15097         0.14460
C         41.57617        26.40700         0.58406
C         42.82049        28.63063         0.55592
C         41.62137        29.32182        -0.15180
C         42.83206        31.47089         0.02085
C         41.55281        30.74407         0.43425
C         42.81470        33.06497         1.26991
C         41.52688        33.55477         0.83933
C         42.82361        35.94400         1.53487
C         41.55158        35.23277         1.94466
C         42.76013        37.30184         1.57325
C         41.50803        37.99741         2.04425
C         42.50838        40.10533         1.15628
C         41.51730        39.52450         2.16588
C         42.43967        41.60891         1.08830
C         41.35493        42.33336         1.82277
C         42.62936        44.53475         1.23007
C         41.52687        43.81033         2.05530
C         42.93577        46.00401         1.59300
C         41.75379        46.83187         2.04273
C         42.92874        48.73614         1.13261
C         41.71012        48.34710         1.75037
C         43.94088        24.98383        -0.00206
C         45.43244        27.17944        -0.28420
C         44.11182        26.43291        -0.21110
C         45.38272        28.57004         0.53126
C         44.12957        29.38085         0.29559
C         45.33246        31.54284         0.57962
C         44.13833        30.77482         0.37925
C         45.32601        32.96618         1.02966
C         44.06575        33.80571         0.82956
C         45.35196        35.96599         1.24150
C         44.13936        35.18953         1.67321
C         45.18958        37.39599         0.82162
C         44.02613        38.09097         1.51524
C         45.19109        40.46327         1.26718
C         43.93194        39.58264         1.45704
C         44.90655        41.82331         0.60066
C         43.45663        42.25451         0.47124
C         44.67175        44.37396        -0.22304
C         43.84278        43.65872         0.82410
C         44.88783        45.86787        -0.16978
C         44.24260        46.69855         0.93266
C         43.76345        48.06128         0.49806
C         47.72603        27.27744         0.38950
C         46.66546        26.56231         0.42191
C         47.95273        28.65377         0.29366
C         46.65481        29.34349         0.20851
C         47.92047        31.57557         0.46148
C         46.59633        30.89744         0.27737
C         47.92504        33.04683         0.76178
C         46.61663        33.74805         1.04345
C         47.39410        35.89476        -0.20853
C         46.68737        35.29253         1.06198
C         47.55617        37.43021        -0.07635
C         46.50853        38.19403         0.70510
C         47.45234        40.41247        -0.25287
C         46.42534        39.72387         0.62535
C         47.01291        41.63547        -1.01493
C         45.65222        42.15771        -0.70508
C         46.06256        44.10388        -2.42013
C         45.24006        43.48434        -1.30330
C         45.82578        45.55554        -2.41295
C         45.34678        46.26468        -1.52313
C         50.38666        28.91181        -0.67130
C         49.25568        29.40685         0.25319
C         50.43125        31.68701        -0.07444
C         49.10904        30.91246        -0.25395
C         50.39065        33.19374         0.04403
C         49.01244        33.81134         0.05162
C         49.86171        35.99748        -1.11482
C         48.74894        35.19685        -0.46248
C         49.61248        37.40031        -1.61673
C         48.32042        38.15471        -1.22387
C         49.58276        40.44174        -1.64654
C         48.68341        39.57746        -0.74249
C         49.28055        41.87569        -1.95989
C         47.84710        42.30176        -1.88425
C         48.48424        44.09456        -3.44521
C         47.36499        43.43208        -2.76081
C         51.41522        29.63325        -0.82350
C         52.62579        31.97825        -0.96144
C         51.65393        31.00577        -0.70180
C         52.70165        33.21361        -0.72746
C         51.55297        34.07613        -0.41532
C         52.15439        36.27206        -1.82321
C         51.29231        35.45053        -0.96349
C         51.90536        37.34740        -2.36642
C         50.73302        38.22426        -2.29843
C         51.67454        40.68574        -2.86836
C         50.67074        39.70461        -2.40796
C         51.42024        41.83758        -3.25020
C         50.57737        42.94850        -2.78514
C         49.64493        43.70726        -3.60522
O         37.88060        44.51303         3.13590
O         48.25760        32.07194         1.77970
O         51.71242        35.26338         0.39902
O         36.53677        32.14558        -1.71847
O         49.39859        36.24712        -2.48333
O         47.56090        40.47735         1.19058
O         41.12515        30.68023         1.80832
O         42.82851        32.00639        -1.13313
O         37.93504        39.91638         3.01970
O         34.00544        37.87445         1.29077
O         46.03335        33.23085         2.27616
O         50.69358        32.34399         1.18381
O         37.68921        27.88953         1.78471
O         36.06664        34.38353         2.16507
O         47.75319        37.78910         1.31286
O         34.67315        41.25259         1.73127
O         40.92289        26.91700         1.74408
O         30.97745        34.87581        -0.52462
O         43.19635        26.90814        -1.24592
O         41.87590        42.86382         3.08451
O         40.40352        45.44624         3.59548
O         34.36017        44.96016         0.58547
O         44.13921        38.86289         2.71780
O         45.87038        44.99126         0.39872
O         44.98243        42.97047         1.60425
O         32.49256        32.07149         0.28854
O         46.16115        43.25076        -3.55486
O         42.79227        46.38071         2.97585
O         39.44305        28.91673        -1.15036
O         34.63843        34.00216        -1.83338
O         41.50713        34.80196         3.13406
O         46.52800        30.14993        -0.99927
O         50.00332        41.54577        -0.75971
O         50.17402        38.85494        -3.47330
O         32.23657        37.24401        -0.16077
O         40.95837        37.36870         3.25299
O         35.02819        39.67259        -2.56813
O         35.51822        28.92518        -2.09972
O         48.53858        34.01909        -1.32926
O         44.58388        42.27238        -1.73526
O         32.87674        40.01110         0.34676
H         32.70620        39.36117         1.06686
O         47.55234        35.54208         2.19409
H         47.09646        35.19021         2.99077
O         34.57791        32.31958         1.43679
H         34.62089        32.95512         2.18729
O         44.01894        34.18005        -0.55631
H         43.92111        33.33742        -1.09100
O         34.27787        37.25597        -3.17202
H         34.43090        37.63694        -4.06131
O         44.25919        34.87401         3.06243
H         43.34910        34.71132         3.42466
O         34.48252        31.45995        -2.73945
H         34.63753        32.45359        -2.73515
O         37.09712        33.44591        -1.47175
H         36.34125        34.03781        -1.79932
O         41.98896        44.70112        -0.07891
H         41.83088        43.81992        -0.48332
O         40.49166        36.22156        -0.06133
H         40.52438        35.38433        -0.58862
O         45.38852        28.18123         1.93320
H         45.57963        28.97378         2.47874
O         47.45969        38.23270        -2.35770
H         47.57200        37.41193        -2.88745
O         35.97043        38.17552         2.91487
H         34.99014        38.25808         2.92686
O         42.09390        39.59236        -0.14098
H         42.76520        39.82602        -0.81734
O         31.62457        42.50538        -2.08969
H         31.66347        43.04608        -1.26783
O         38.73434        35.04069         2.95084
H         39.60404        34.80238         3.36896
O         41.95444        29.36320        -1.53156
H         41.12696        29.49569        -2.04688
O         48.91152        30.93326        -1.66521
H         48.04701        30.50093        -1.87723
O         37.91403        36.14022        -0.47999
H         38.78949        36.56747        -0.64578
O         40.29511        32.78462         2.77622
H         39.39829        32.44977         3.05507
O         41.42229        33.88996        -0.48426
H         42.31044        34.18483        -0.82129
O         45.75248        27.40398        -1.62143
H         45.00599        27.12256        -2.19431
O         36.82679        46.86717         2.39747
H         36.89158        46.42739         3.27252
O         45.18576        46.83280         1.96043
H         44.71551        47.10786         2.77913
O         46.57205        35.63696        -1.35904
H         46.93950        34.85008        -1.83033
O         51.14124        43.69880        -1.79437
H         51.57929        43.11128        -1.14295
O         38.92946        42.19586         3.83121
H         38.34487        42.83443         4.29407
O         35.42362        42.19038        -2.36475
H         35.62537        41.46592        -3.00323
O         42.64590        28.70181         1.97550
H         43.42231        28.27026         2.39989
O         45.57615        40.75526         2.61183
H         46.34474        41.36402         2.59683
O         32.97516        42.63306         0.26600
H         32.86669        41.79028         0.77612
O         37.68555        32.54975         2.64356
H         37.43596        33.40158         3.08967
O         49.76512        29.44445         1.57135
H         49.77205        28.54002         1.94860
O         39.66106        41.61424         0.32888
H         40.31652        41.02467        -0.11433
O         41.96866        39.89094         3.47670
H         41.58949        39.25291         4.11975
O         41.45245        24.20367         2.01121
H         40.59746        24.51327         2.37485
O         49.57311        39.30538         0.35692
H         49.18180        39.70663         1.17288
O         37.36105        39.63261        -0.14321
H         37.98076        40.40102        -0.14250
O         42.92072        32.60814         2.54218
H         42.01550        32.40119         2.90514
O         44.67629        37.39793        -0.56846
H         45.15242        36.69729        -1.08421
