         618
 CSIRO Nanostructure Databank - Neutral Graphene Oxide Data Set
C         23.23562        69.76429        -0.95371
C         23.27150        71.07935        -1.37978
C         22.14565        71.72784        -1.95349
C         23.29332        73.88545        -1.97793
C         22.17514        73.08977        -2.25834
C         25.47825        65.67196         0.70277
C         25.28664        67.14567         0.94266
C         24.29716        67.78400         0.01271
C         25.52888        69.92100         0.04428
C         24.34455        69.12752        -0.28024
C         25.43522        71.41763        -0.13856
C         24.59456        71.81328        -1.35276
C         25.58347        74.08864        -1.10054
C         24.47513        73.32412        -1.43946
C         27.79423        61.24328         1.25796
C         27.81896        62.77501         1.31967
C         26.65549        63.55011         0.93504
C         27.93444        65.68271         1.09099
C         26.66538        64.96864         0.96420
C         27.89578        67.17169         1.21312
C         26.60632        67.92190         1.03951
C         27.93630        70.06050         0.54514
C         26.66618        69.33884         0.56249
C         27.95706        71.44765         0.15287
C         26.77009        72.11652        -0.20186
C         28.00518        74.20337        -0.56411
C         26.79368        73.48017        -0.61066
C         30.42327        57.13020         2.28897
C         30.40032        58.50723         2.07549
C         29.15638        59.21977         1.91424
C         30.34768        61.27784         1.41724
C         29.11002        60.56445         1.61953
C         30.33039        62.60410         0.93367
C         29.17406        63.51604         1.13153
C         30.34739        65.76399         0.67686
C         29.13645        64.99943         0.88308
C         30.45362        67.20140         0.99765
C         29.17110        67.97030         1.15184
C         30.40505        70.05881         0.48552
C         29.16179        69.39689         0.75657
C         30.41362        71.43123         0.14925
C         29.20680        72.13988         0.02707
C         30.45632        74.26492        -0.27809
C         29.22877        73.55810        -0.28243
C         32.95733        52.87565         2.46668
C         32.95681        54.30708         2.58807
C         31.71003        55.03130         2.53889
C         32.89164        57.21352         2.57426
C         31.64978        56.41473         2.46167
C         32.89305        58.60066         2.08970
C         31.64805        59.23500         1.90777
C         32.85021        61.30344         1.35158
C         31.60941        60.60298         1.52836
C         32.80285        62.61326         0.78230
C         31.54786        63.05703         0.38394
C         32.78523        65.78510         0.26407
C         31.50293        65.22662         0.12848
C         32.86618        67.18726         0.36824
C         31.66327        67.92410         0.55121
C         32.88982        69.96152         0.05684
C         31.65490        69.31484         0.40685
C         32.94118        71.38381        -0.07390
C         31.66159        72.09794        -0.38744
C         32.91211        74.24448        -0.03334
C         31.70819        73.59142        -0.17227
C         35.41173        48.63329         1.68732
C         35.39020        50.01974         1.97789
C         34.17013        50.74227         2.06399
C         35.42721        52.78891         2.62615
C         34.13532        52.11885         2.38202
C         35.44855        54.31255         2.67601
C         34.16995        55.01635         2.58356
C         35.45793        57.17835         2.20281
C         34.22150        56.47844         2.63467
C         35.40687        58.56258         1.90019
C         34.12981        59.28581         1.88430
C         35.38423        61.44853         1.51110
C         34.09639        60.65101         1.54522
C         35.31736        62.77489         0.77288
C         34.01195        63.49077         0.75944
C         35.25560        65.65385         0.04377
C         34.00397        64.96945         0.44243
C         35.30001        67.02506        -0.13550
C         34.10431        67.83238         0.08002
C         35.27024        69.89426        -0.71978
C         34.08819        69.21434        -0.09591
C         35.37512        71.34865        -0.33990
C         34.16184        72.05946        -0.11340
C         35.44631        74.19557        -0.28832
C         34.20972        73.52672         0.24372
C         37.78097        44.24329         1.07403
C         37.76456        45.63119         1.64370
C         36.56359        46.46543         1.17161
C         37.83633        48.54601         1.93162
C         36.61006        47.90830         1.64394
C         37.88347        49.96511         2.09574
C         36.65630        50.69892         2.10984
C         37.88821        52.83001         2.24442
C         36.67964        52.10069         2.29380
C         37.87402        54.27560         2.23165
C         36.69970        55.01045         2.33464
C         37.87053        57.11781         1.72029
C         36.67092        56.44481         2.10265
C         37.82215        58.49726         1.36156
C         36.59350        59.22519         1.45559
C         37.71821        61.24344         0.59348
C         36.58297        60.61803         1.10372
C         37.72667        62.68747         0.33910
C         36.46729        63.42442         0.42787
C         37.74612        65.52333        -0.38105
C         36.45170        64.81202        -0.13004
C         37.77707        67.00659        -0.52833
C         36.54603        67.72751        -0.44701
C         37.77631        69.82666        -0.78903
C         36.55894        69.12580        -0.58288
C         37.79765        71.26610        -0.80531
C         36.59053        72.01258        -0.52751
C         37.85784        74.11720        -0.78554
C         36.61450        73.47318        -0.52200
C         40.14371        40.12315        -0.26836
C         40.14813        41.53489         0.00681
C         38.95982        42.21080         0.33704
C         40.22260        44.29622         0.77056
C         38.96296        43.58565         0.72514
C         40.22258        45.69913         1.09938
C         39.06371        46.36479         1.42814
C         40.39288        48.47624         2.11035
C         39.09074        47.75951         1.93925
C         40.42267        49.97191         2.47440
C         39.11725        50.69154         2.17849
C         40.37196        52.81941         1.95506
C         39.11789        52.09219         2.14740
C         40.35467        54.18422         1.78877
C         39.18330        55.01996         2.24565
C         40.27090        57.07407         1.23681
C         39.11892        56.41665         1.65051
C         40.25765        58.46623         0.88368
C         39.01354        59.15796         0.93962
C         40.13154        61.13330         0.01763
C         38.96693        60.51458         0.49743
C         39.96626        62.44667        -0.66919
C         38.88062        63.31262        -0.06571
C         40.10007        65.40863        -0.87056
C         39.03072        64.82567         0.02899
C         40.28261        66.92085        -0.83757
C         38.96583        67.66998        -0.84808
C         40.19294        69.79475        -1.29984
C         38.98875        69.09314        -0.98106
C         40.22186        71.20188        -1.28015
C         39.01998        71.93881        -1.01377
C         40.28330        74.05178        -1.14758
C         39.04886        73.39039        -0.98863
C         42.51397        35.94615        -1.32608
C         42.56711        37.23995        -0.84901
C         41.35562        37.98021        -0.65485
C         42.58849        40.10911        -0.66013
C         41.31030        39.38062        -0.50623
C         42.62291        41.59871        -0.34999
C         41.38155        42.27149         0.04680
C         42.71620        44.32176         0.57922
C         41.43045        43.62230         0.45220
C         42.75367        45.66543         0.88383
C         41.50161        46.44794         0.96517
C         42.91976        48.49795         1.61862
C         41.59410        47.86997         1.44182
C         42.97559        49.93664         2.06979
C         41.65471        50.69104         1.96037
C         42.84719        52.78472         1.43834
C         41.61584        52.04900         1.84088
C         42.90835        54.26598         1.64303
C         41.60523        54.97321         1.64296
C         42.78606        57.07391         0.82774
C         41.50247        56.28040         0.88997
C         42.73153        58.47179         0.57250
C         41.45808        59.15320         0.53144
C         42.62859        61.24464        -0.18604
C         41.42710        60.52525         0.09381
C         42.60701        62.66125        -0.64676
C         41.23393        63.24018        -0.80561
C         42.77907        65.50209        -1.93472
C         40.92180        64.52704        -1.47660
C         42.70732        66.86372        -1.74536
C         41.36554        67.54066        -1.73591
C         42.71718        69.73852        -2.01525
C         41.36978        69.03596        -1.80286
C         42.68818        71.21368        -1.65248
C         41.47970        71.90658        -1.45389
C         42.72713        74.02878        -1.40906
C         41.49630        73.34227        -1.33296
C         44.66947        33.41277        -3.12549
C         43.59356        33.92387        -2.43891
C         45.03389        35.91687        -1.78118
C         43.71430        35.16827        -1.67494
C         45.00530        37.41782        -1.55649
C         43.92515        37.84239        -0.47064
C         44.93854        40.07858        -0.09420
C         43.83405        39.36004        -0.41587
C         45.09712        41.51161        -0.16585
C         43.90416        42.24711        -0.02974
C         45.23553        44.21042         0.42192
C         43.96174        43.59950         0.35492
C         45.33274        45.58194         0.93774
C         44.02873        46.33148         1.19988
C         45.36457        48.46909         1.22280
C         44.08066        47.80582         1.33688
C         45.35669        49.91532         1.26520
C         44.18765        50.60891         1.46926
C         45.36593        52.81399         0.95061
C         44.12194        52.05103         1.20593
C         45.27356        54.17411         0.67621
C         44.20414        55.00638         1.33346
C         45.18850        57.12199         0.47702
C         44.01069        56.39862         0.76549
C         45.15807        58.52082         0.39025
C         43.93613        59.20829         0.43161
C         45.12282        61.17389        -0.65069
C         43.94245        60.71627         0.29460
C         45.14719        62.67013        -0.91506
C         43.87562        63.33482        -1.15074
C         45.13860        65.41542        -1.82948
C         43.89616        64.67461        -1.56294
C         45.12629        66.88999        -1.67540
C         43.94386        67.57032        -1.51401
C         45.18044        69.76260        -1.55432
C         43.88145        69.05214        -1.22016
C         45.18009        71.17744        -1.69027
C         43.92677        71.89885        -1.62450
C         45.19341        74.00634        -1.52288
C         43.94195        73.32857        -1.52556
C         45.88916        34.12041        -3.26477
C         47.19218        36.19479        -3.01586
C         46.07188        35.39939        -2.70928
C         47.41624        37.46298        -2.39115
C         46.44976        37.92959        -1.44352
C         47.72096        40.02087        -1.17786
C         46.78401        39.08626        -0.73004
C         47.50191        41.52541        -1.10538
C         46.36811        42.14293        -0.28048
C         47.65999        44.28120        -0.14233
C         46.41411        43.53717        -0.02135
C         47.69518        45.66840         0.13270
C         46.54431        46.36385         0.63508
C         47.66768        48.53229         0.17599
C         46.52196        47.76416         0.79921
C         47.81644        49.94949         0.62504
C         46.66429        50.67339         1.24981
C         47.77548        52.79301         0.46755
C         46.57446        52.10137         0.78135
C         47.74458        54.19502         0.22211
C         46.45303        54.88110         0.17641
C         47.71865        57.11917         0.17467
C         46.43465        56.40405         0.12795
C         47.71040        58.52610         0.24409
C         46.44071        59.29398         0.50832
C         47.65870        61.39020        -0.02893
C         46.42759        60.62000        -0.18645
C         47.66625        62.83229        -0.52676
C         46.36912        63.33131        -1.05798
C         47.70684        65.42502        -1.63618
C         46.44664        64.65963        -1.65080
C         47.58018        66.83499        -2.14650
C         46.44659        67.58267        -1.42608
C         47.56372        69.75989        -2.09621
C         46.37101        69.06747        -1.73577
C         47.64492        71.17295        -1.99339
C         46.42127        71.87377        -1.78943
C         47.63143        74.01382        -1.46106
C         46.40261        73.32165        -1.64766
C         48.60006        38.22142        -2.59033
C         49.87212        40.36780        -2.24801
C         48.73056        39.53489        -2.06558
C         49.96206        41.64617        -1.63729
C         48.81304        42.26362        -1.02620
C         50.09779        44.32753        -0.68915
C         48.85287        43.60485        -0.61099
C         50.15017        45.69611        -0.36074
C         48.94429        46.39658        -0.01847
C         50.20891        48.49974         0.06659
C         48.97380        47.78400         0.13409
C         50.23273        49.91933         0.15502
C         49.00734        50.63618         0.40094
C         50.20478        52.79511         0.08655
C         49.00998        52.08262         0.36600
C         50.17879        54.22495         0.02087
C         48.93645        54.93257         0.06386
C         50.17577        57.06106         0.14785
C         48.92741        56.37309         0.06105
C         50.15938        58.52088         0.39133
C         48.91280        59.26982         0.18542
C         50.17723        61.39318        -0.18792
C         48.95006        60.67524         0.02948
C         50.18378        62.75723        -0.70367
C         48.95388        63.43493        -0.95127
C         50.17543        65.42545        -1.95256
C         48.91474        64.77646        -1.47993
C         50.18504        66.91506        -2.25822
C         48.87737        67.61258        -2.15152
C         50.52467        70.00980        -2.27823
C         48.69118        68.92870        -2.49531
C         50.26747        71.31840        -1.80478
C         48.95002        72.00053        -2.18936
C         50.00155        74.01064        -1.00442
C         48.86358        73.36098        -1.51379
C         51.19118        42.35756        -1.65850
C         52.52163        44.38481        -1.21032
C         51.28755        43.66942        -1.17064
C         52.60947        45.72795        -0.83314
C         51.39451        46.41519        -0.42140
C         52.74419        48.49318         0.04680
C         51.42557        47.78266        -0.14867
C         52.66371        49.96647        -0.23055
C         51.46809        50.64122        -0.03265
C         52.64324        52.82787        -0.15487
C         51.44056        52.09736        -0.04598
C         52.62073        54.22420        -0.18434
C         51.39724        54.94502        -0.06887
C         52.67029        57.06746         0.42597
C         51.38007        56.37166         0.07238
C         52.68133        58.55295         0.18444
C         51.44182        59.30652         0.35444
C         52.66698        61.36513        -0.27351
C         51.42013        60.72485        -0.03649
C         52.68214        62.73167        -0.72512
C         51.44828        63.37536        -0.99980
C         52.72503        65.47186        -1.65127
C         51.47485        64.70145        -1.67535
C         52.70784        66.93319        -1.54382
C         51.50772        67.69797        -2.03525
C         52.71178        69.85473        -1.35400
C         51.53165        69.16731        -1.80969
C         52.61814        71.29074        -1.11953
C         51.34823        71.97236        -1.20887
C         52.40198        74.03840        -0.39062
C         51.25986        73.37250        -0.85717
C         53.83146        46.46249        -0.94224
C         55.13171        48.55256        -0.72088
C         53.92708        47.82243        -0.62207
C         55.18640        49.96786        -0.58697
C         53.87939        50.72410        -0.71428
C         55.17517        52.87106        -0.46620
C         53.95679        52.08826        -0.03541
C         55.14845        54.24459        -0.54210
C         53.86122        54.96638        -0.47596
C         55.15289        57.12487        -0.02595
C         53.86288        56.43932        -0.25439
C         55.12662        58.48065         0.20973
C         53.87662        59.22254         0.12347
C         55.14376        61.33267        -0.15593
C         53.89956        60.66036        -0.07226
C         55.15402        62.69789        -0.61335
C         53.96690        63.36638        -0.93764
C         55.30635        65.51453        -1.57828
C         53.99701        64.75155        -1.48673
C         55.34545        67.05578        -1.75232
C         54.00327        67.71705        -1.36336
C         55.18513        69.98760        -1.40822
C         53.94186        69.19827        -1.39512
C         55.09056        71.45411        -1.09902
C         53.76254        72.03280        -0.82428
C         54.81586        74.05146         0.13061
C         53.67135        73.40073        -0.38282
C         56.37723        50.68583        -0.52071
C         57.62435        52.83452        -0.62849
C         56.43703        52.13539        -0.52765
C         57.65343        54.32073        -0.93006
C         56.37322        55.01914        -0.53108
C         57.61801        57.00652         0.26322
C         56.36497        56.35077        -0.16455
C         57.57596        58.42786         0.71793
C         56.28645        59.25175         0.77652
C         57.57726        61.35340         0.31419
C         56.36938        60.65928         0.21364
C         57.64930        62.72498        -0.06861
C         56.48493        63.34996        -0.74614
C         57.82392        65.61946        -0.85448
C         56.57646        64.79307        -1.16322
C         57.51876        67.05865        -0.45316
C         56.49738        67.75913        -1.02567
C         57.63470        70.07115        -0.61971
C         56.50986        69.26092        -1.14812
C         57.58152        71.44693        -0.40613
C         56.32027        72.20574        -0.61621
C         57.13271        74.01008         0.91987
C         56.09611        73.45100         0.16924
C         58.90761        55.05319        -0.50846
C         60.11356        57.12466         0.11862
C         58.91410        56.35623        -0.06781
C         60.12639        58.47719         0.50291
C         58.86340        59.17247         0.84785
C         60.10979        61.39718         0.73590
C         58.82318        60.67304         0.77329
C         59.99214        62.80693         0.70901
C         58.81826        63.46846         0.16900
C         59.96715        65.61783         0.44688
C         58.85187        64.89900         0.02108
C         59.87774        67.06904         0.63961
C         58.61849        67.78525         0.22733
C         60.11748        69.73823        -0.12842
C         58.73900        69.26687        -0.03518
C         60.01002        71.84145         0.04904
C         58.67128        72.22750         0.18366
C         59.52918        74.05029         1.58714
C         58.44254        73.43952         0.92825
C         61.30671        59.24694         0.49786
C         62.64040        61.28734         0.58451
C         61.35334        60.65925         0.70297
C         62.90207        62.58047         1.07285
C         61.04813        63.61346         1.18805
C         62.43981        65.65527         1.06573
C         61.17048        64.98525         0.93256
C         62.45808        67.08373         0.97460
C         61.16446        67.81585         0.94226
C         62.43936        70.07063         0.56191
C         61.20149        69.23037         0.50615
C         62.29678        71.50335         1.03496
C         61.06092        72.24733         0.89652
C         61.91445        74.03686         2.31899
C         60.82906        73.46298         1.63034
C         63.87518        63.54003         0.76851
C         64.89502        65.71761         1.14495
C         63.71553        64.94972         1.04356
C         64.88748        67.13086         1.24085
C         63.64342        67.81554         1.02407
C         64.81301        69.99387         1.52546
C         63.68610        69.29408         0.90912
C         64.67168        71.42315         1.81435
C         63.33761        72.07931         1.75265
C         64.21310        73.95942         3.13401
C         63.17962        73.38509         2.38164
C         66.03422        67.87116         1.61084
C         67.05471        69.91994         2.56947
C         65.97425        69.27134         1.88460
C         66.94567        71.23337         3.03589
C         65.75750        72.04372         2.65811
C         66.59490        73.91966         4.03809
C         65.37295        73.14721         3.61901
C         67.94629        71.89520         3.77315
C         67.78958        73.25929         4.15495
O         31.44474        64.03911        -0.59609
O         50.81331        58.94064         1.65856
O         46.24445        55.61889        -1.10253
O         34.01723        64.47834         1.87504
O         50.79210        64.64333        -3.01989
O         53.27196        67.25701        -0.17440
O         63.40787        69.81036        -0.48618
O         60.30391        70.87326        -0.92018
O         58.80652        59.95767         2.08022
O         56.87708        63.73740        -2.13107
O         51.07111        67.26482        -3.35839
O         61.96188        63.02197         2.04377
O         43.18820        52.39164         0.06430
O         29.99916        67.64968         2.32099
O         35.52532        53.49858         3.90444
O         49.66454        69.55763        -3.27757
O         45.82112        64.79992        -2.97880
O         42.60781        41.07609        -1.75266
O         53.65479        55.93413        -1.59909
O         41.70058        64.88617        -2.56670
O         46.05098        39.40473         0.40692
O         42.36988        54.83132         2.89060
O         55.87367        72.29936        -2.00464
O         58.27068        68.74643         1.26666
O         47.58354        62.54155         0.91163
O         33.60088        57.04359         3.84792
O         40.96321        68.19058        -2.96749
O         44.78568        45.69572         2.29804
O         41.37630        47.56817         0.00441
O         57.53019        57.34540         1.71485
O         60.26635        67.43601         2.02261
O         65.71744        72.33304         1.24456
O         44.77263        35.10755        -0.60851
O         28.56965        63.26774         2.45361
O         54.78024        64.87913        -2.78039
O         41.93392        63.50021         0.45778
O         27.14701        67.70010         2.38622
O         56.09434        69.68214        -2.49308
O         39.85980        47.72254         3.24967
O         37.05403        64.86652        -1.48677
O         44.27209        61.32618         1.58354
H         43.44698        61.41137         2.10658
O         58.52015        65.78341        -2.12817
H         58.30820        64.98849        -2.67110
O         39.29127        65.14286         1.43020
H         40.05951        64.59646         1.70880
O         25.33358        71.37917        -2.52915
H         24.81833        71.64259        -3.31994
O         47.19870        66.80279        -3.54654
H         47.80955        66.20481        -4.02601
O         37.58027        45.50430         3.09408
H         38.42443        45.19182         3.48285
O         43.05786        69.66178        -3.41220
H         42.42863        69.02642        -3.83023
O         44.54017        37.96923        -2.81690
H         44.48195        38.94556        -2.73150
O         49.03457        72.27247        -3.61587
H         49.16925        71.40625        -4.06420
O         53.01719        48.37810         1.49490
H         53.09222        47.42195         1.70023
O         24.65066        67.20678         2.26591
H         25.39248        67.18826         2.91810
O         36.56253        46.45800        -0.26039
H         35.88455        47.08994        -0.57523
O         47.25123        48.64816        -1.25268
H         47.95711        49.14327        -1.72197
O         64.88491        72.43389         4.82328
H         64.72141        73.10462         5.51954
O         47.01277        41.80169        -2.48813
H         47.03059        42.77476        -2.61712
O         40.55739        50.03433         3.93655
H         40.06861        49.24723         4.28527
O         44.84058        55.27351         2.63438
H         44.10675        55.43008         3.27701
O         57.67921        54.37964        -2.41156
H         56.83342        53.99745        -2.73133
O         39.46320        55.27655         3.66966
H         39.46810        54.41325         4.13583
O         54.14503        51.81900         1.38238
H         54.20143        52.67441         1.85690
O         35.62194        61.80110         2.91627
H         36.36096        62.44455         2.94794
O         27.41183        60.83008        -0.06749
H         28.19419        60.88906        -0.65317
O         55.50906        67.30085        -3.15759
H         55.15521        66.51612        -3.63869
O         47.00972        50.77418         2.69049
H         47.88560        51.21220         2.75518
O         39.55032        62.17550        -2.04884
H         38.65377        61.77919        -2.02309
O         52.84818        56.87472         1.86373
H         52.19722        57.47037         2.30549
O         44.77641        60.53554        -1.92228
H         45.44034        60.79832        -2.59434
O         24.72454        71.92027         1.03174
H         25.20122        71.61529         1.83206
O         40.85460        67.17144         0.49779
H         40.28642        66.68054         1.14631
O         46.72465        67.47945        -0.00118
H         46.02674        67.97573         0.47919
O         41.27085        55.82409        -0.49168
H         41.26576        56.61434        -1.07279
O         53.68134        50.97779        -2.13694
H         53.71321        50.11765        -2.60582
O         44.30047        37.34603         0.81726
H         44.46081        36.37524         0.72047
O         43.25547        49.91185         3.51688
H         42.38073        49.89985         3.98556
O         34.35299        73.55755         1.72421
H         35.21641        73.14502         1.94133
O         31.54023        71.95434        -1.85507
H         31.71187        71.01406        -2.07708
O         46.52094        59.65568         1.93675
H         45.81783        60.33467         2.10188
O         34.97349        69.89496        -2.16999
H         35.72049        70.34638        -2.61881
O         55.97083        59.42988         2.18729
H         56.31248        58.63294         2.65416
O         43.63394        69.20626         0.20130
H         42.86399        68.64398         0.44158
H         23.24144        74.97228        -2.14018
H         25.57030        75.17644        -1.27085
H         28.00768        75.26900        -0.83763
H         30.43812        75.36448        -0.33303
H         32.91990        75.34467         0.03329
H         35.48009        75.29542        -0.31596
H         37.89754        75.21673        -0.78806
H         40.31284        75.15051        -1.09737
H         42.73785        75.12662        -1.34284
H         45.20588        75.09991        -1.40256
H         47.59438        75.06085        -1.12111
H         49.89380        75.04864        -0.65224
H         52.33016        75.09314        -0.08699
H         54.68939        75.04133         0.59467
H         56.94583        74.92955         1.49402
H         59.36425        75.00286         2.11164
H         61.77758        74.98508         2.85967
H         64.03212        74.93705         3.60949
H         66.49773        74.97090         4.34746
H         22.31166        69.17894        -1.08235
H         21.21709        71.15635        -2.10013
H         21.27514        73.56353        -2.67545
H         24.55863        65.08363         0.55638
H         23.41478        67.19467        -0.27960
H         26.98791        60.88193         1.94627
H         25.75727        63.02270         0.58276
H         29.47563        56.57147         2.32446
H         28.21883        58.64943         1.99959
H         31.98877        52.36574         2.35332
H         30.77551        54.45202         2.48981
H         34.46011        48.11108         1.50325
H         33.22406        50.20556         1.89736
H         36.83152        43.68701         1.05021
H         35.61715        45.98112         1.54969
H         39.18163        39.59254        -0.20103
H         38.00395        41.66676         0.32075
H         41.53750        35.51122        -1.59246
H         40.40462        37.42486        -0.69389
H         44.55991        32.45664        -3.65733
H         42.61614        33.42177        -2.48114
H         46.67763        33.70043        -3.90592
H         47.95188        35.79923        -3.70697
H         49.38878        37.82344        -3.24546
H         50.74077        39.98234        -2.80225
H         52.08042        41.87471        -2.09050
H         53.42106        43.86505        -1.57329
H         54.71150        45.94811        -1.35903
H         56.06729        48.00279        -0.91605
H         57.33087        50.13460        -0.49837
H         58.57252        52.28046        -0.71316
H         59.86664        54.55923        -0.73155
H         61.07397        56.64754        -0.13121
H         62.25803        58.73175         0.29434
H         63.44347        60.72116         0.08979
H         64.80962        63.22699         0.27920
H         65.86077        65.19364         1.20138
H         66.96951        67.33185         1.82342
H         67.95281        69.33169         2.80991
H         68.88768        71.37496         4.00066
H         68.66284        73.78723         4.56657
