         477
 CSIRO Nanostructure Databank - Neutral Graphene Oxide Data Set
C         27.96038        27.41529        -0.70628
C         27.88565        28.77985        -0.45637
C         26.65707        29.52548        -0.43468
C         27.95098        31.62581        -0.53651
C         26.66024        30.88198        -0.30549
C         27.91083        33.13966        -0.47174
C         26.70670        33.83217        -0.67754
C         27.87242        35.96695        -0.77748
C         26.67382        35.22155        -0.75819
C         27.87339        37.43174        -0.76829
C         26.67774        38.17097        -0.82052
C         27.85910        40.26318        -0.37881
C         26.66575        39.54968        -0.64153
C         27.85509        41.71024        -0.13643
C         26.66676        42.40023         0.18313
C         27.87118        44.51086         0.27203
C         26.68462        43.76383         0.43948
C         27.94293        45.88784         0.71460
C         30.34640        27.34361        -0.08992
C         29.14251        26.69750        -0.43233
C         30.38297        28.74788         0.00347
C         29.05837        29.41506         0.24869
C         30.41351        31.71091         0.24565
C         29.09096        30.94364         0.22910
C         30.34882        33.27572         0.22482
C         29.12908        33.86687        -0.47106
C         30.35736        36.00903        -1.00836
C         29.09458        35.26433        -0.67797
C         30.34848        37.46701        -0.64766
C         29.10310        38.15348        -0.59203
C         30.34642        40.28975        -0.01153
C         29.07606        39.56549        -0.38761
C         30.34717        41.76145        -0.38268
C         29.06258        42.44196        -0.25406
C         30.23845        44.64144        -0.52675
C         29.04405        43.84950        -0.16337
C         30.25940        46.08517        -0.08759
C         29.09762        46.59444         0.66360
C         32.80776        24.45420         0.32645
C         31.65744        25.11373         0.11323
C         32.78473        27.24738        -0.52612
C         31.63172        26.62070         0.26763
C         32.82030        28.76446        -0.33374
C         31.62927        29.48854        -0.08111
C         32.71046        31.65458        -0.78360
C         31.60480        30.93369        -0.11093
C         32.73928        33.15845        -0.84970
C         31.72729        33.93978        -0.04608
C         32.82369        36.01742        -0.79094
C         31.63333        35.34047        -0.60862
C         32.85621        37.46241        -0.79491
C         31.59128        38.17664        -0.61539
C         32.84824        40.30327        -0.38396
C         31.58676        39.55733        -0.43497
C         32.80022        41.75205        -0.72894
C         31.50596        42.45385        -0.58926
C         32.80282        44.60958        -0.37804
C         31.53907        43.93179        -0.94137
C         32.75614        46.04159        -0.10237
C         31.58031        46.76486         0.00557
C         32.74060        48.90271         0.32207
C         31.59041        48.18451         0.25782
C         35.44452        23.17967         1.48927
C         35.31209        24.62631         1.16576
C         34.03945        25.24066         0.62987
C         35.38526        27.30679        -0.17887
C         34.10657        26.54025        -0.15713
C         35.37323        28.77302        -0.54658
C         34.04297        29.45118        -0.79859
C         35.25750        31.74225        -0.87850
C         34.01677        30.94160        -1.01109
C         35.27040        33.13391        -0.96356
C         34.04572        33.88225        -0.98372
C         35.31720        36.00023        -0.90680
C         34.07331        35.27317        -0.86416
C         35.33097        37.41380        -0.85454
C         34.08798        38.11961        -0.76258
C         35.39581        40.33760        -0.95215
C         34.14477        39.57809        -0.51319
C         35.37244        41.77098        -0.46562
C         34.10917        42.51587        -0.68517
C         35.20158        44.55427         0.37472
C         34.00451        43.94484        -0.32428
C         35.30634        46.04505         0.16065
C         34.04494        46.76818        -0.13494
C         35.29329        48.96530         0.32559
C         34.02333        48.26856         0.01052
C         35.38077        50.31715         0.15322
C         37.84557        23.02665         0.74215
C         36.59308        22.48113         1.39954
C         37.88460        24.54950         0.86782
C         36.61991        25.35795         1.01623
C         37.56788        27.65173         0.85807
C         36.55526        26.79890         0.58734
C         37.74567        29.09621         0.53365
C         36.53788        29.64444        -0.19889
C         37.74602        31.74445        -0.60278
C         36.43207        31.15328        -0.14187
C         37.78322        33.09817        -0.88100
C         36.53306        33.85980        -0.90816
C         37.80701        36.01268        -1.00514
C         36.53928        35.24975        -0.94472
C         37.79676        37.43893        -0.59380
C         36.58270        38.15635        -0.68733
C         37.80676        40.23973        -0.16357
C         36.62223        39.56578        -0.53577
C         37.80233        41.68434         0.04641
C         36.54191        42.41761        -0.07131
C         37.71682        44.52881         0.43108
C         36.52331        43.83603         0.19158
C         37.72550        45.96966         0.58403
C         36.47725        46.70457         0.42363
C         37.79068        48.87291         0.59720
C         36.47478        48.17521         0.81818
C         37.80800        50.30443         0.47869
C         36.61342        51.00387         0.31022
C         40.62308        20.68957         2.14825
C         39.34221        21.19410         1.76891
C         40.41044        23.17654         0.86420
C         39.19836        22.42724         1.17384
C         40.36219        24.43084         0.29617
C         39.05688        25.17563         0.12656
C         40.21526        27.32358        -0.29230
C         39.37656        26.59907         0.52025
C         40.19065        28.77663        -0.37283
C         39.02177        29.51426        -0.20679
C         40.27015        31.63522        -0.92740
C         38.95130        30.90754        -0.72057
C         40.24676        33.09820        -0.89930
C         39.06051        33.77765        -0.99727
C         40.30645        35.90489        -0.47059
C         39.09813        35.26216        -1.04946
C         40.17068        37.26157         0.11101
C         38.98026        38.08897        -0.20115
C         40.22537        40.14978         0.48034
C         38.99996        39.48519         0.05248
C         40.21577        41.60366         0.63848
C         38.97640        42.35273         0.40929
C         40.12251        44.50123         0.92132
C         38.96326        43.80098         0.57569
C         40.17404        45.94833         0.93301
C         38.93535        46.67146         0.74398
C         40.24342        48.80269         0.65560
C         38.97157        48.12549         0.68754
C         40.28103        50.22617         0.50871
C         39.08373        50.99880         0.46327
C         40.40506        53.05203         0.39626
C         39.17105        52.40159         0.40750
C         43.05085        20.92971         2.50750
C         41.79948        21.37260         1.87308
C         42.88008        23.29368         0.69496
C         41.72302        22.59760         1.11665
C         42.89795        24.73309         0.60510
C         41.54120        25.37665         0.44588
C         42.57794        27.29456        -1.19043
C         41.37171        26.47809        -0.78214
C         42.59884        28.75176        -1.00992
C         41.44779        29.44079        -0.72348
C         42.78005        31.60447        -0.87636
C         41.50990        30.91801        -0.44285
C         42.78257        33.03546        -0.63398
C         41.55316        33.84505        -0.98829
C         42.64487        35.77610         0.33640
C         41.45780        35.20030        -0.33532
C         42.71407        37.23648         0.52796
C         41.41808        37.95513         0.58584
C         42.59327        40.02652         1.30401
C         41.39577        39.42489         0.68566
C         42.57395        41.52536         1.50267
C         41.37112        42.26634         1.02324
C         42.63272        44.44589         1.45395
C         41.33723        43.73023         1.24280
C         42.68492        45.97621         1.47913
C         41.38821        46.65634         1.05458
C         42.71100        48.77905         0.68217
C         41.45288        48.07682         0.83388
C         42.73944        50.12419         0.35832
C         41.53165        50.89141         0.38580
C         42.89496        52.96397         0.43898
C         41.59413        52.31440         0.36559
C         44.05441        21.71946         2.96177
C         45.32447        23.90706         2.41606
C         44.07392        23.22778         2.94375
C         45.27628        24.95656         1.50125
C         44.03005        25.48656         0.93935
C         45.26186        27.65304         0.31974
C         44.03791        26.97452         0.86092
C         45.16069        28.79101        -0.71701
C         43.91169        29.41594        -1.41767
C         45.18082        31.69036        -1.24093
C         43.93250        30.92969        -1.19318
C         45.21879        32.99657        -0.57929
C         43.96440        33.65927        -0.31030
C         45.20597        35.75535         0.48573
C         43.94910        35.00718         0.31257
C         45.17256        37.09636         0.81763
C         43.91144        37.84169         0.82899
C         45.21873        39.98612         1.45180
C         43.90081        39.24885         1.33579
C         45.21993        41.48796         1.58518
C         43.87977        42.27977         1.82517
C         45.18074        44.41240         1.26951
C         43.86943        43.62842         1.05621
C         45.14330        45.80474         0.63977
C         43.82686        46.57819         0.62572
C         45.25197        48.70695         0.31273
C         44.02581        48.07967         0.96562
C         45.25790        50.06271        -0.04635
C         43.96398        50.82507        -0.20005
C         44.03255        52.26095         0.26969
C         47.73664        24.19968         2.83273
C         46.55492        23.57418         3.09092
C         47.84322        25.14904         1.71994
C         46.54619        25.61341         1.08290
C         47.72582        27.59550         0.05449
C         46.55355        26.96158         0.45198
C         47.67072        28.67399        -0.90626
C         46.43693        29.04074        -1.39872
C         47.68600        31.76276        -1.52531
C         46.35823        31.16764        -1.73730
C         47.67432        33.11605        -0.84065
C         46.40916        33.65787        -0.33175
C         47.72792        35.67576         0.33102
C         46.46351        34.89350         0.54958
C         47.74594        37.05621         0.77859
C         46.45164        37.82526         1.08808
C         47.66755        40.03102         0.79471
C         46.47575        39.29939         1.04891
C         47.67048        41.42838         0.71982
C         46.48482        42.20354         1.19758
C         47.65378        44.42204         0.98341
C         46.39161        43.63931         0.69918
C         47.68943        45.78063         0.89132
C         46.44752        46.53725         0.57978
C         47.70661        48.68857         0.25131
C         46.47799        48.01460         0.42362
C         47.68741        50.02554        -0.17495
C         46.47508        50.68302        -0.37306
C         50.34148        25.19939         1.60158
C         49.09070        25.97475         1.52057
C         50.26824        27.49349        -0.22459
C         49.05465        27.16355         0.57775
C         50.22542        28.53125        -1.34570
C         48.91776        29.35102        -1.40074
C         50.22075        31.57548        -1.24707
C         48.93631        30.88401        -1.54216
C         50.18239        33.02601        -0.88748
C         48.95191        33.67437        -0.38319
C         50.21028        35.72676         0.25820
C         48.95819        35.02397         0.04067
C         50.24933        37.10798         0.43183
C         48.95730        37.83356         0.38735
C         50.24819        39.99292         0.60743
C         48.93700        39.31557         0.43844
C         50.26583        41.44691         0.21621
C         48.92175        42.18875         0.45810
C         50.18432        44.30929         1.22737
C         48.90955        43.65018         0.83351
C         50.27690        45.80400         1.08692
C         48.95565        46.55565         1.01085
C         50.30510        48.66630         0.51606
C         48.96976        48.02089         0.68954
C         51.37596        25.50340         0.79243
C         52.96387        27.41408        -1.79654
C         51.30816        26.59474        -0.16291
C         52.70320        28.82597        -1.73221
C         51.48888        29.42097        -1.40959
C         52.69625        31.61579        -1.17399
C         51.42483        30.88382        -1.29256
C         52.73081        32.96134        -0.68410
C         51.46452        33.71205        -0.54569
C         52.72306        35.72206         0.21953
C         51.46403        34.90825         0.38606
C         52.71800        37.13325         0.37307
C         51.46459        37.84817         0.53236
C         52.78331        39.99033         0.88325
C         51.44037        39.28642         0.64039
C         52.77979        41.50226         0.67530
C         51.48126        42.16800         0.76059
C         53.09558        44.52896         0.64323
C         51.37559        43.45113         1.20072
C         52.75641        45.77433         0.07470
C         51.38748        46.45122         0.23113
C         51.43945        47.95179         0.43952
C         55.13564        27.68365        -2.89017
C         54.06268        26.88016        -2.49800
C         55.11684        29.05386        -2.59579
C         53.78710        29.71693        -2.33290
C         55.13565        31.71691        -1.57412
C         53.90162        31.02089        -1.59086
C         55.18288        33.17121        -1.17904
C         53.91409        33.66680        -0.53828
C         55.17519        35.70607         0.07232
C         53.92651        35.04109        -0.07884
C         55.18229        37.12919         0.24280
C         53.94219        37.83331         0.26103
C         55.22210        39.99929         0.28493
C         53.89950        39.32692         0.05155
C         55.29220        41.50085         0.23515
C         53.94833        42.18765         0.39468
C         54.82481        44.09589        -0.98396
C         53.98677        43.61440         0.05422
C         54.66056        45.41953        -1.42681
C         53.60523        46.21363        -0.95854
C         56.28882        29.82795        -2.61335
C         56.29151        31.13708        -2.12453
C         56.38873        33.63484        -0.40185
C         56.38076        34.89613         0.09416
C         56.39250        37.86552         0.34842
C         56.38478        39.27137         0.42021
C         55.98779        41.95521        -1.04664
C         55.79002        43.17866        -1.57479
O         36.39932        29.10238        -1.53722
O         49.13371        27.33203         2.05194
O         43.51598        26.70585        -1.76179
O         42.24963        40.61613         2.60701
O         50.88043        33.93310        -1.86051
O         43.12550        27.68666         1.29451
O         32.24827        32.41906        -1.98837
O         41.89383        43.99530         2.61890
O         29.63510        31.34988         1.47440
O         34.37197        25.34882         2.04435
O         47.27443        37.22940         2.17322
O         37.52122        25.07716         2.15119
O         43.09163        35.02135         1.51420
O         34.11491        47.64382        -1.32785
O         33.95147        30.01932        -2.16162
O         46.19066        41.94045         2.60122
O         48.78714        38.60301        -0.86662
O         29.98052        33.70791         1.52472
O         48.88704        43.23326        -0.60328
O         48.85462        47.55281         2.09036
O         48.89886        29.99120        -2.70705
O         40.49240        37.30486         1.54681
O         50.32331        45.20120         2.39826
O         29.90798        45.71544        -1.47879
O         46.37236        29.95615        -2.45278
O         33.48052        42.12250        -1.97562
O         35.00088        26.43339        -1.30593
O         44.58206        39.34111         2.62245
O         38.68817        27.19320         1.57531
O         43.14576        23.87985         3.38809
O         45.80552        45.93119        -0.64360
O         38.56076        35.83971        -2.28191
O         52.47710        44.07140         1.82096
O         45.30046        29.06939         0.70643
O         52.32798        26.45730        -1.07283
O         47.78709        32.98339        -2.33661
O         33.67155        39.98254         0.81433
O         39.60693        31.02628        -2.05623
O         47.42046        24.62984         0.41212
O         35.42603        40.34827        -2.40832
H         34.74209        40.99939        -2.70500
O         32.52584        27.00255        -1.91932
H         33.36990        27.15216        -2.40357
O         34.88085        44.40940         1.81355
H         35.62535        44.79633         2.32262
O         53.53204        39.55251        -1.34464
H         54.18138        39.08642        -1.91133
O         43.67801        43.31114        -0.33811
H         44.50605        43.51412        -0.84314
O         43.32487        46.51457        -0.72670
H         44.10935        46.51234        -1.32468
O         45.39009        44.64606         2.66526
H         45.25348        43.79844         3.15859
O         51.49396        34.33617         1.73925
H         51.51357        35.07910         2.37894
O         43.73440        50.89220        -1.65098
H         42.88808        51.36834        -1.79063
O         41.75329        34.12245        -2.41990
H         41.50474        33.31988        -2.92684
O         44.34745        48.30863         2.35717
H         43.72752        47.79263         2.92600
O         50.44506        41.40031        -1.22797
H         49.83842        40.71870        -1.58945
O         38.58845        25.20944        -1.24217
H         39.35745        25.34360        -1.84547
O         50.76844        46.26605        -1.09013
H         51.38526        46.59910        -1.77586
O         32.36031        34.08128         1.25227
H         31.58442        34.10695         1.88794
O         37.72936        22.72335        -0.67425
H         37.67573        21.75074        -0.77537
O         46.53199        34.42464         1.94046
H         46.63604        35.23155         2.49925
O         44.03185        22.63662         0.42037
H         43.89899        21.66986         0.49685
O         46.25287        43.49756        -0.74135
H         47.17327        43.45501        -1.11490
O         41.47146        31.03725         1.01282
H         42.29457        30.64681         1.37795
O         30.39698        40.29124         1.46497
H         30.55971        39.37005         1.76115
O         56.15906        41.92732         1.32552
H         56.17007        42.90760         1.32591
O         28.76522        29.05179         1.65450
H         29.22308        29.73197         2.20876
O         36.16936        31.57628         1.23038
H         36.87811        31.20951         1.81093
O         30.38111        36.00280        -2.50081
H         31.22152        36.42356        -2.78505
O         31.62065        44.00857        -2.38121
H         31.20306        44.86379        -2.63876
O         41.08794        25.68998        -1.95909
H         41.93844        25.58117        -2.44413
O         41.21834        25.98078         1.70746
H         41.87558        26.69830         1.91018
O         55.24736        33.87732        -2.48120
H         55.17967        34.83757        -2.28803
O         37.88075        29.73642         1.84235
H         38.51182        29.18417         2.35824
O         53.12169        39.74826         2.27204
H         52.53912        40.29887         2.83536
O         50.22979        27.76039        -2.57265
H         50.00466        28.38411        -3.30044
O         31.90614        26.93399         1.65588
H         31.19941        26.54468         2.21093
O         53.26311        30.06603        -3.66532
H         53.84379        30.76630        -4.03318
O         43.85614        42.55212         3.23173
H         43.52480        41.73670         3.67506
O         42.85965        46.30656         2.87939
H         42.42447        45.58614         3.39614
O         44.02603        29.17716        -2.83109
H         44.01014        28.20201        -2.96827
O         28.34315        31.33011        -1.92571
H         27.73571        31.81320        -2.52511
O         36.31453        48.11339         2.29645
H         37.18709        47.87030         2.67444
H         27.08114        26.87781        -1.09095
H         25.70455        28.97264        -0.44855
H         25.71456        31.42048        -0.15131
H         25.75462        33.28481        -0.72472
H         25.69955        35.72191        -0.83586
H         25.72127        37.65959        -0.99332
H         25.70691        40.08322        -0.69301
H         25.72436        41.84708         0.29516
H         25.76870        44.27490         0.76874
H         27.06000        46.31065         1.21666
H         29.12474        25.60514        -0.55237
H         29.15889        47.57664         1.15238
H         32.85671        23.35593         0.27472
H         30.73912        24.55548        -0.12211
H         32.72210        49.95583         0.63610
H         30.63369        48.69092         0.44412
H         34.55122        22.68988         1.90715
H         34.49541        50.89251        -0.15335
H         36.58437        21.42034         1.69767
H         36.61355        52.09517         0.19872
H         40.66461        19.77008         2.74993
H         38.45766        20.59862         2.03851
H         40.44494        54.15061         0.40259
H         38.25991        53.01403         0.40436
H         43.13927        19.84231         2.67775
H         42.92413        54.03712         0.68150
H         44.93474        21.22713         3.40625
H         45.00918        52.75922         0.35455
H         48.60792        24.02662         3.47989
H         46.50227        22.85132         3.91869
H         48.62994        50.56199        -0.35269
H         46.48209        51.72161        -0.73178
H         50.37726        24.30525         2.24034
H         50.35641        49.76299         0.59953
H         52.28647        24.88840         0.78813
H         52.41573        48.45935         0.41155
H         56.05176        27.21636        -3.27950
H         54.14302        25.78747        -2.57128
H         55.30994        45.80436        -2.22574
H         53.42928        47.19451        -1.42664
H         57.22948        29.36727        -2.94971
H         57.22481        31.71608        -2.14323
H         57.29467        33.01376        -0.35150
H         57.28601        35.30572         0.56636
H         57.35352        37.33577         0.38797
H         57.33546        39.80565         0.56089
H         56.74559        41.28292        -1.47775
H         56.35887        43.50998        -2.45681
