         424
 CSIRO Nanostructure Databank - Neutral Graphene Oxide Data Set
C          1.24616         3.49420         0.98946
C          0.05631         4.19063         1.02047
C          1.23590         6.33052         0.89937
C          0.04832         5.60012         0.95584
C          1.24662         7.78173         0.67285
C          0.05738         8.43803         0.25787
C          1.23384        10.56053         0.07278
C          0.04854         9.78813        -0.01050
C          1.21248        11.98210        -0.16274
C         -0.00945        12.68694        -0.36390
C          1.16444        14.82068        -0.48260
C         -0.03490        14.05486        -0.49971
C          1.15056        16.25913        -0.55833
C         -0.05907        17.00557        -0.57327
C          1.17153        19.11641        -0.59702
C         -0.04794        18.38242        -0.60347
C          1.18133        20.56990        -0.57962
C         -0.01139        21.30838        -0.79659
C          1.19800        23.41545        -0.60448
C          0.00249        22.68464        -0.83094
C          1.20978        24.85842        -0.62231
C          0.04765        25.60574        -0.93489
C          1.25021        27.69039        -0.61511
C          0.07913        26.98632        -0.96433
C          1.21129        29.20020        -0.82077
C          0.30521        29.93208         0.15325
C          1.24405        32.02695        -0.76430
C          0.29368        31.27260         0.16167
C          1.28716        33.51649        -0.50592
C          0.08353        34.24713        -0.54627
C          1.24266        36.37033        -0.25666
C          0.05822        35.63944        -0.34061
C          1.26961        37.78571        -0.08157
C          3.71350         3.51002         0.90888
C          2.48484         4.19829         0.96237
C          3.71551         6.33838         1.06586
C          2.48150         5.63088         0.97025
C          3.68029         7.83815         1.30038
C          2.43634         8.51662         0.76411
C          3.67219        10.67516         0.42705
C          2.45814         9.91175         0.43232
C          3.67343        12.03997         0.09295
C          2.42569        12.71624        -0.16364
C          3.63386        14.86221        -0.45179
C          2.40208        14.13227        -0.35669
C          3.60974        16.25045        -0.62598
C          2.38304        16.97072        -0.60619
C          3.64070        19.13107        -0.50505
C          2.38972        18.40781        -0.59889
C          3.63751        20.54472        -0.28749
C          2.38926        21.27198        -0.36296
C          3.60542        23.42484        -0.04525
C          2.39778        22.70535        -0.33333
C          3.62082        24.81616        -0.01971
C          2.41238        25.55214        -0.30975
C          3.58062        27.68510         0.27922
C          2.40280        26.97395        -0.27207
C          3.62614        29.18756         0.12505
C          2.63979        29.84511        -0.82541
C          3.71124        32.01847        -0.17718
C          2.58784        31.34639        -0.58506
C          3.72357        33.47748        -0.08954
C          2.50895        34.18625        -0.33781
C          3.75084        36.34953         0.01442
C          2.54368        35.67041        -0.55947
C          3.72635        37.79697         0.11513
C          2.45515        38.47318         0.04028
C          6.16083         3.49744         0.76353
C          4.93334         4.20569         0.92162
C          6.20682         6.35700         1.28068
C          4.92361         5.63724         1.08382
C          6.19762         7.85857         1.00504
C          4.93174         8.53653         0.83213
C          6.21117        10.68058         0.46899
C          4.93836        10.03502         0.95342
C          6.21188        12.18148         0.46323
C          4.90160        12.79795         0.01242
C          6.13719        14.88628        -0.45020
C          4.88749        14.14634        -0.31501
C          6.12537        16.27244        -0.63185
C          4.86065        16.99476        -0.99322
C          6.09316        19.13975        -0.48190
C          4.86542        18.44416        -0.58265
C          6.08779        20.54800        -0.21609
C          4.85351        21.23073        -0.09319
C          6.11862        23.39405         0.29557
C          4.81093        22.64959         0.42743
C          6.11127        24.82043         0.41763
C          4.85489        25.54525         0.28995
C          6.06406        27.63933         0.83095
C          4.83046        26.91945         0.46691
C          6.08944        29.18487         0.75825
C          4.90738        29.90549         0.28365
C          6.16608        31.99208         0.41430
C          4.94573        31.28248         0.12551
C          6.10212        33.46205         0.78770
C          4.88707        34.18716         0.25642
C          6.12019        36.35452         0.82559
C          4.89072        35.62206         0.30485
C          6.16345        37.79815         0.36726
C          4.91721        38.49345         0.25054
C          8.55537         3.48937         0.25676
C          7.39205         4.15012         0.65631
C          8.49855         6.31641         0.12964
C          7.56545         5.58624         1.17344
C          8.58876         7.81309         0.30351
C          7.44011         8.53779         0.56674
C          8.63098        10.64725        -0.01005
C          7.39953         9.97446         0.36687
C          8.61394        12.04770        -0.31199
C          7.41704        12.78487        -0.20760
C          8.57343        14.88239        -0.82501
C          7.38396        14.17918        -0.48472
C          8.55698        16.28056        -0.84638
C          7.34190        17.00286        -0.68872
C          8.56929        19.16123        -0.55004
C          7.34316        18.44060        -0.60968
C          8.57238        20.57967        -0.30129
C          7.33042        21.26200        -0.10005
C          8.60171        23.32757         0.45224
C          7.31221        22.66286         0.19345
C          8.60677        24.82956         0.66459
C          7.32603        25.54576         0.54368
C          8.58173        27.68096         0.74265
C          7.35620        26.95422         0.67386
C          8.57785        29.10723         0.81179
C          7.39314        29.85255         0.66385
C          8.60992        32.03925         0.92790
C          7.35242        31.28809         0.57591
C          8.66276        33.47052         0.33219
C          7.37584        34.23353         0.52965
C          8.64912        36.33261         0.34186
C          7.39522        35.59559         0.52589
C          8.62490        37.75533         0.13412
C          7.35489        38.43923         0.12332
C         11.01909         3.47301         0.04109
C          9.80958         4.17725         0.13201
C         11.02630         6.31565        -0.00761
C          9.81882         5.61054         0.08856
C         11.03372         7.75923        -0.10219
C          9.82822         8.48823         0.02017
C         11.06405        10.58802        -0.44389
C          9.83346         9.91444        -0.12655
C         11.03081        11.99720        -0.72235
C          9.83307        12.68811        -0.73079
C         11.09775        14.84341        -0.94333
C          9.80750        14.11071        -1.24091
C         11.10394        16.30215        -1.08562
C          9.78688        17.05382        -1.08858
C         11.04363        19.15734        -0.66407
C          9.80810        18.48164        -0.74941
C         11.05154        20.57965        -0.49359
C          9.81485        21.28304        -0.30364
C         11.02644        23.43189        -0.07701
C          9.85149        22.68943         0.00151
C         11.05625        24.85750         0.14771
C          9.86096        25.57334         0.44664
C         11.09256        27.68991         0.44061
C          9.84785        26.97720         0.55886
C         11.12511        29.10443         0.61922
C          9.88330        29.82870         1.10514
C         11.12873        31.98691         0.66982
C          9.83550        31.22861         0.47793
C         11.13696        33.46768         0.83820
C          9.82995        34.24489         0.95764
C         11.09835        36.35895         0.20904
C          9.87207        35.66016         0.40099
C         11.07764        37.77862        -0.02681
C          9.82117        38.44940        -0.04821
C         13.47876         3.45267        -0.02215
C         12.26223         4.15588        -0.01065
C         13.48461         6.30678        -0.13986
C         12.26377         5.60009        -0.03841
C         13.48136         7.70771        -0.33939
C         12.27408         8.44292        -0.32490
C         13.53997        10.57622        -0.64961
C         12.27755         9.86836        -0.51589
C         13.56036        11.99450        -0.80230
C         12.28675        12.69025        -1.20064
C         13.53874        14.87947        -0.75671
C         12.28728        14.16721        -0.86917
C         13.54369        16.30358        -0.67377
C         12.33009        17.03808        -0.78553
C         13.53048        19.16171        -0.52947
C         12.30138        18.44582        -0.68804
C         13.51777        20.58849        -0.48994
C         12.28478        21.27955        -0.48659
C         13.53653        23.47714        -0.35848
C         12.24737        22.77076        -0.67206
C         13.51665        24.85125        -0.23963
C         12.28027        25.57642        -0.02218
C         13.55733        27.71783         0.09247
C         12.29908        26.98863         0.14063
C         13.56795        29.14132         0.28380
C         12.31146        29.82681         0.49362
C         13.56554        31.99045         0.25052
C         12.29797        31.28573         0.57839
C         13.57962        33.46270         0.04732
C         12.37835        34.22399         0.49133
C         13.55746        36.35087         0.01309
C         12.34478        35.67666         0.21651
C         13.54083        37.78590        -0.14078
C         12.29950        38.46505        -0.17204
C         15.91606         3.40974         0.20352
C         14.73640         4.12544         0.04614
C         15.93682         6.28902         0.00626
C         14.74144         5.58809        -0.03719
C         16.00049         7.71380        -0.19482
C         14.76540         8.38431        -0.74356
C         15.98769        10.57222        -0.48724
C         14.75518         9.87546        -0.54421
C         16.00488        12.00015        -0.59703
C         14.76149        12.70569        -0.76373
C         15.98751        14.87277        -0.72125
C         14.77014        14.16728        -0.77438
C         16.00525        16.28844        -0.58302
C         14.77644        17.01405        -0.55654
C         16.00473        19.14080        -0.37178
C         14.76894        18.44080        -0.48238
C         15.99925        20.58883        -0.28283
C         14.77035        21.31369        -0.39909
C         16.01432        23.43239        -0.18017
C         14.78056        22.73134        -0.34848
C         16.03917        24.85997        -0.16946
C         14.78308        25.61023        -0.53620
C         16.01680        27.72496        -0.00680
C         14.77532        27.04086        -0.08139
C         16.02547        29.14896         0.13598
C         14.79824        29.83558         0.27619
C         16.07821        32.02465         0.11047
C         14.85003        31.30334         0.62301
C         16.05183        33.47019        -0.06069
C         14.86229        34.19373        -0.00006
C         16.00541        36.35735        -0.20891
C         14.82305        35.64060        -0.05934
C         16.00416        37.79701        -0.20940
C         14.76901        38.48449        -0.21507
C         18.48756         3.43453         0.28017
C         17.17952         4.11346         0.61797
C         18.47234         6.28994         0.28522
C         17.20449         5.54306         0.11708
C         18.43145         7.78870         0.48824
C         17.18017         8.42688        -0.07626
C         18.44850        10.54620        -0.31489
C         17.21657         9.85515        -0.30717
C         18.45696        11.97342        -0.48795
C         17.23921        12.68346        -0.61917
C         18.51005        14.86440        -0.56545
C         17.26964        14.13808        -1.02400
C         18.50324        16.26942        -0.43040
C         17.24509        17.01108        -0.48920
C         18.51974        19.19018        -0.43651
C         17.22509        18.40945        -0.37772
C         18.41723        20.48798         0.36338
C         17.20232        21.28967        -0.03754
C         18.47102        23.41519         0.19329
C         17.22887        22.69971         0.00668
C         18.47707        24.83831         0.16560
C         17.24170        25.55905        -0.00842
C         18.47817        27.71861         0.09077
C         17.25402        27.00790        -0.00384
C         18.49046        29.15726         0.05971
C         17.26528        29.87112         0.08358
C         18.51674        32.01286        -0.46866
C         17.25396        31.31424        -0.01706
C         18.50854        33.50283        -0.18735
C         17.30542        34.17779        -0.19824
C         18.52622        36.37821        -0.11773
C         17.28545        35.64451        -0.55044
C         18.47901        37.79860        -0.02622
C         17.23724        38.48778        -0.16262
C         19.64785         4.10106         0.37979
C         20.92366         6.29292         0.31503
C         19.69983         5.55478         0.81073
C         20.89721         7.61911        -0.00684
C         19.71261         8.43257         0.01293
C         20.90902        10.55356        -0.45776
C         19.70563         9.81782        -0.25235
C         20.90515        11.93214        -0.55462
C         19.70497        12.67844        -0.51775
C         20.91199        14.82709        -0.15337
C         19.71412        14.12742        -0.43874
C         20.91472        16.20114        -0.02112
C         19.72551        16.95552        -0.15756
C         20.87334        19.09882         0.32144
C         19.74260        18.39425        -0.02486
C         20.88302        20.52569         0.38052
C         19.72020        21.25931         0.32637
C         20.89488        23.44052         0.49983
C         19.69980        22.70497         0.35253
C         20.89802        24.82455         0.46626
C         19.70456        25.55391         0.28396
C         20.91521        27.72945         0.25627
C         19.71570        27.00303         0.20902
C         20.93044        29.12215         0.18147
C         19.74594        29.86417         0.07694
C         20.91811        32.05673         0.15265
C         19.77314        31.31005        -0.02327
C         20.92719        33.47838         0.07590
C         19.76263        34.21617        -0.07085
C         20.91535        36.42684         0.30141
C         19.74367        35.68345         0.03257
C         20.87672        37.82197         0.38676
C         19.68035        38.51039         0.22440
O          3.15096        28.60355         1.37100
O          0.68830        29.34087        -2.13815
O         12.06653        33.89694         1.90530
O         18.08464         5.82809        -1.03567
O          8.67266        23.90105         1.80741
O          8.14643         5.47484         2.39551
O          5.93263        28.46087         2.03099
O         10.44898        16.72629        -2.37277
O         13.45751        32.54608        -1.10799
O          6.20191         7.25557         2.40937
O          5.99309        36.38628         2.28023
H          6.03714        35.44888         2.58788
O         17.09576         4.22441         2.07832
H         17.36835         3.36740         2.46684
O         12.10107        22.95924        -2.14366
H         11.30916        22.45064        -2.42268
O          9.76115        14.02462        -2.71506
H          9.87670        14.95493        -3.03553
O          0.78134        31.92869        -2.12757
H          0.62798        30.94917        -2.32411
O         18.71173        19.56800        -1.83055
H         18.83445        18.74825        -2.35280
O          9.71758        30.95280        -0.94070
H          9.74379        31.81697        -1.41743
O         17.35824        14.10921        -2.50237
H         17.25294        15.03144        -2.81904
O          4.62026        22.50820         1.88671
H          5.45304        22.14953         2.26135
O          6.34590        12.57221         1.88596
H          5.80308        11.92818         2.40651
O         14.80359        25.70297        -2.01624
H         14.59007        24.81134        -2.36806
O         19.71875         5.58516         2.25959
H         19.36095         6.46120         2.53843
O          3.62828         8.00120         2.77794
H          4.46461         7.57991         3.10869
O         10.02552        29.88551         2.54006
H          9.39972        30.57246         2.87666
O         14.83947         8.19411        -2.20881
H         15.68286         8.59267        -2.51332
O          2.69130        35.81745        -2.03759
H          1.99448        35.25887        -2.44766
O          8.91713        33.42609        -1.10068
H          8.06655        33.26605        -1.56135
O         12.24603        12.63392        -2.66500
H         11.38830        13.04954        -2.94034
O         18.38434         7.99444         1.94644
H         18.40178         8.96167         2.11028
O         18.52230        31.91652        -1.94236
H         17.66256        32.26831        -2.25951
O          3.17000        29.62694        -2.15002
H          2.34057        29.49554        -2.69949
O         18.20209        20.09955         1.75369
H         18.15118        20.91715         2.29138
O         17.32702        35.65682        -2.03518
H         18.17320        35.23621        -2.30177
O          4.86070        17.01545        -2.47621
H          5.66770        17.49600        -2.76011
O          8.61084        32.13523         2.37023
H          7.83407        32.68593         2.63311
O          4.91418        10.30072         2.41724
H          4.27400         9.64543         2.81263
O         14.90573        31.38398         2.08560
H         15.68756        30.87433         2.38539
O          7.81112         6.10449        -1.14548
H          8.39042         6.44200        -1.86103
O          5.96722        33.46468         2.27303
H          5.17989        32.92135         2.49715
O          9.55991        34.43915         2.36276
H         10.43640        34.50256         2.80845
H          1.25431         2.39501         1.00072
H         -0.89953         3.65026         1.06497
H         -0.92279         6.11279         0.94863
H         -0.87601         7.87065         0.14925
H         -0.89642        10.25646        -0.31428
H         -0.96276        12.14298        -0.37835
H         -1.00457        14.55464        -0.62490
H         -1.02669        16.48702        -0.54540
H         -1.00855        18.91379        -0.59460
H         -0.95976        20.78596        -0.97687
H         -0.93895        23.21353        -1.02668
H         -0.88793        25.09253        -1.19260
H         -0.80964        27.55534        -1.26732
H         -0.38479        29.35732         0.79085
H         -0.38038        31.83899         0.82442
H         -0.86200        33.70574        -0.68834
H         -0.90788        36.15657        -0.24213
H          0.31397        38.33042        -0.04566
H          3.71761         2.41234         0.83730
H          2.44296        39.56770         0.14988
H          6.12069         2.40016         0.67096
H          4.91998        39.59205         0.18043
H          8.50576         2.42506        -0.02610
H          7.34697        39.51122        -0.12925
H         11.01247         2.37338         0.07914
H          9.79963        39.53948        -0.19557
H         13.46329         2.35248         0.00047
H         12.29133        39.55733        -0.30491
H         15.87185         2.31058         0.26807
H         14.76281        39.58351        -0.26686
H         18.47506         2.37402        -0.01809
H         17.23532        39.58778        -0.13737
H         20.59946         3.58985         0.16385
H         21.88121         5.75105         0.27628
H         21.84093         8.08893        -0.32347
H         21.87196        10.02651        -0.48054
H         21.86840        12.44912        -0.66043
H         21.85628        14.28174        -0.02680
H         21.86584        16.70680         0.19006
H         21.81946        18.58024         0.53023
H         21.86056        21.01880         0.47394
H         21.84990        22.91843         0.64228
H         21.85706        25.34527         0.58218
H         21.87838        27.20905         0.33511
H         21.90260        29.63279         0.19080
H         21.86783        31.56449         0.40633
H         21.89165        33.98542         0.21421
H         21.87763        35.91577         0.43821
H         21.80434        38.37641         0.58643
H         19.65449        39.60700         0.29592
