         651
 CSIRO Nanostructure Databank - Neutral Graphene Oxide Data Set
C          5.80624        31.72221        -0.03547
C          5.80762        33.01921        -0.37284
C          8.27124        27.34424         0.05076
C          8.24663        28.75746         0.03674
C          7.07136        29.48584         0.00907
C          8.32703        31.66866        -0.01991
C          7.05243        30.95816         0.34069
C          8.31695        33.07091        -0.21826
C          7.07314        33.75917        -0.73006
C          8.23780        35.96747        -0.27696
C          7.07907        35.24967        -0.51025
C          8.27839        37.38723        -0.32859
C         10.79019        23.09308         0.46856
C         10.68141        24.50845         0.60969
C          9.46987        25.16983         0.60920
C         10.60406        27.43170         1.13171
C          9.37243        26.64092         0.69599
C         10.73768        28.83321         0.68027
C          9.59716        29.46567        -0.09737
C         10.76375        31.62667         0.05592
C          9.54699        30.96290         0.11871
C         10.76789        33.06501        -0.14356
C          9.50261        33.79085        -0.14437
C         10.77315        35.98207         0.09918
C          9.46128        35.24304         0.24962
C         10.71332        37.42438         0.12818
C          9.46961        38.12048        -0.08272
C         10.63660        40.29269         0.19328
C          9.47019        39.53911        -0.06958
C         10.62243        41.72564         0.11988
C         13.27339        18.89701        -0.17240
C         13.23862        20.27307         0.04930
C         12.03349        20.99242         0.23378
C         13.27880        23.12791         0.44596
C         12.01579        22.39957         0.39066
C         13.23834        24.59669         0.61936
C         11.93494        25.31147         0.70712
C         13.14620        27.42844         1.32978
C         11.86671        26.62654         1.48852
C         13.14262        28.77891         1.11710
C         11.93615        29.49715         0.72125
C         13.22811        31.72959         0.55755
C         12.07296        30.87003         0.04480
C         13.26410        33.09894         0.48295
C         12.07281        33.84448        -0.01150
C         13.28048        36.04142         0.13984
C         11.97160        35.29919         0.18923
C         13.12472        37.43011         0.71476
C         11.88279        38.17809         0.39211
C         13.08290        40.32830         0.78960
C         11.85014        39.57491         0.47994
C         13.04634        41.82000         0.60427
C         11.78251        42.51028         0.24249
C         13.03966        44.68300         0.17719
C         11.82457        43.91566         0.13029
C         13.03316        46.09880         0.18226
C         15.94200        14.81838        -1.62726
C         15.80594        16.23194        -1.44927
C         14.61370        16.81560        -0.96418
C         15.65827        19.12871        -1.04454
C         14.44252        18.26219        -0.81167
C         15.79182        20.40405        -0.27605
C         14.51875        21.02340         0.20451
C         15.77657        23.21026         0.40912
C         14.49900        22.49150         0.36640
C         15.75703        24.58719         0.79636
C         14.47555        25.22211         1.17857
C         15.68969        27.45802         1.38780
C         14.42502        26.69837         1.51590
C         15.67412        28.83353         1.34301
C         14.38718        29.55951         1.34735
C         15.70835        31.75735         1.15526
C         14.40511        31.03686         1.12366
C         15.68048        33.20183         1.12619
C         14.47188        33.87405         0.81547
C         15.67237        36.01850         0.90730
C         14.47334        35.29129         0.70968
C         15.68183        37.45739         0.84174
C         14.40601        38.17989         0.92931
C         15.59117        40.29724         0.62618
C         14.39388        39.63012         0.76621
C         15.59332        41.74322         0.29882
C         14.31563        42.51190         0.24069
C         15.51057        44.67277         0.04986
C         14.30804        43.99359         0.22356
C         15.42527        46.07336        -0.24594
C         14.23770        46.83608        -0.00349
C         15.62304        48.90253        -0.25746
C         14.37277        48.25666        -0.04948
C         15.76179        50.32481        -0.26976
C         18.39959        10.65703        -2.65181
C         18.47103        12.05158        -2.28658
C         17.29392        12.81612        -2.36580
C         18.14630        15.13483        -2.56413
C         17.12020        14.24423        -2.15213
C         18.12063        16.52699        -2.30119
C         16.94210        17.06438        -1.75637
C         18.24076        19.27120        -1.42272
C         16.92085        18.50875        -1.55003
C         18.22771        20.58669        -0.74788
C         17.04170        21.20959        -0.37786
C         18.31602        23.23762         0.42704
C         16.99899        22.56015         0.09960
C         18.21592        24.75366         0.44340
C         16.93487        25.36537         0.86776
C         18.17587        27.42958         1.50063
C         16.91935        26.72656         1.20058
C         18.16155        28.94493         1.63753
C         16.94078        29.60315         1.03948
C         18.09734        31.78536         1.87965
C         16.87836        31.07577         1.33795
C         18.16021        33.23362         1.44584
C         16.92646        33.90935         1.22041
C         18.15137        36.02613         1.12755
C         16.92024        35.32613         1.09305
C         18.15609        37.52461         1.22340
C         16.86748        38.19533         0.83713
C         18.08985        40.35576         0.64804
C         16.85474        39.61042         0.70198
C         18.11626        41.73799         0.63876
C         16.84014        42.49890         0.61477
C         18.15370        44.69693         0.48712
C         16.80403        43.98640         0.43829
C         18.43486        45.68155        -0.60958
C         16.52148        46.76017        -0.80465
C         18.15469        48.67429        -0.67362
C         16.76396        48.11400        -0.65496
C         18.25309        50.17469        -0.52147
C         16.99359        50.96800        -0.49939
C         18.32654        53.04367        -0.81199
C         17.08355        52.36191        -0.64324
C         18.38305        54.43844        -0.89287
C         20.83895         6.36991        -1.94082
C         20.83076         7.74046        -1.84939
C         19.74513         8.45870        -2.52539
C         20.86855        10.60509        -0.95961
C         19.23312         9.66783        -2.07715
C         20.89088        11.97288        -1.29714
C         19.77533        12.66259        -1.91377
C         21.18483        14.71834        -1.92878
C         20.05916        13.96286        -2.35249
C         21.30863        16.13064        -2.12770
C         19.33873        17.33040        -2.34769
C         20.84358        19.17559        -1.44934
C         19.50081        18.52531        -1.68136
C         20.75223        20.51829        -0.72059
C         19.49764        21.35170        -0.84740
C         20.87506        23.50439        -0.20146
C         19.52037        22.77492        -0.39996
C         20.78419        24.76003         0.65035
C         19.51053        25.49782         0.65852
C         20.65452        27.50473         1.63466
C         19.47539        26.81779         1.29690
C         20.65713        28.90124         1.83487
C         19.45494        29.67092         1.65644
C         20.63525        31.83656         2.14240
C         19.41263        31.05354         1.72395
C         20.65801        33.25451         1.61631
C         19.38722        33.93003         1.41803
C         20.63956        36.07847         1.08098
C         19.37711        35.34911         1.21523
C         20.64734        37.42158         0.76810
C         19.37604        38.14312         0.58847
C         20.65588        40.35333         0.70628
C         19.37796        39.63367         0.47478
C         20.62134        41.73975         0.91113
C         19.37829        42.45602         0.73010
C         20.63987        44.61881         0.75163
C         19.38218        43.83119         0.62027
C         20.80230        45.79181        -0.20287
C         19.51342        46.49437        -0.53808
C         20.72227        48.65147        -1.02225
C         19.42766        47.89678        -1.04214
C         20.72260        50.14237        -0.99375
C         19.53020        50.87083        -0.83190
C         20.80824        52.96410        -1.01407
C         19.55688        52.28121        -0.88429
C         20.84106        54.37697        -1.11589
C         19.62422        55.14139        -1.02352
C         20.98593        57.23043        -0.83183
C         19.66941        56.54143        -1.01058
C         20.97025        58.72883        -0.97997
C         23.19125         3.45109        -1.73600
C         22.00480         4.12631        -1.77191
C         23.26958         6.27797        -1.65310
C         21.95227         5.56483        -1.32459
C         23.23405         7.70351        -1.17246
C         22.01022         8.40469        -1.22963
C         23.27466        10.47560        -0.67690
C         22.04425         9.80576        -0.90719
C         23.29391        11.90523        -0.65380
C         22.14409        12.63352        -1.07919
C         23.39811        14.74498        -0.87547
C         22.22691        14.04103        -1.23890
C         23.42307        16.19312        -0.94530
C         22.27082        16.89674        -1.48242
C         23.33320        19.01105        -0.62304
C         22.16265        18.39162        -1.36512
C         23.27212        20.39735        -0.07864
C         21.95965        21.15393        -0.07304
C         23.20815        23.21894         0.65599
C         22.00765        22.59875         0.24252
C         23.18114        24.63717         1.04148
C         21.91264        25.33982         1.15134
C         23.18381        27.45905         1.65383
C         21.90271        26.67813         1.88474
C         23.19047        28.90707         1.81245
C         21.92278        29.60626         2.26925
C         23.10201        31.78730         1.93983
C         21.93037        31.09137         1.95794
C         23.13802        33.22179         1.67941
C         21.86775        33.92060         1.46419
C         23.09814        36.01676         0.99079
C         21.89410        35.34176         1.15452
C         23.15161        37.44026         0.75734
C         21.89371        38.16423         0.35485
C         23.11730        40.35079         0.81099
C         21.87774        39.63333         0.74159
C         23.12694        41.72215         1.01074
C         21.86055        42.42911         1.47528
C         23.22282        44.73466         1.22029
C         21.88538        43.95494         1.23312
C         23.14981        46.08777         0.50426
C         21.98872        46.67315         0.02448
C         23.19563        48.67325        -0.73643
C         21.97027        47.98678        -0.54800
C         23.17474        49.98983        -1.48638
C         21.95928        50.81861        -1.14467
C         23.33817        52.93147        -0.89985
C         22.02168        52.21206        -1.10045
C         23.38288        54.34359        -1.43575
C         22.08826        55.04266        -1.54568
C         23.41475        57.26605        -1.72715
C         22.09537        56.54652        -1.62272
C         23.42578        58.70902        -1.34750
C         22.14974        59.41775        -1.03100
C         23.47396        61.44711        -0.67531
C         22.24823        60.84520        -0.86124
C         24.41630         4.09389        -1.37692
C         25.66279         6.16445        -0.89373
C         24.48738         5.48699        -1.24237
C         25.69584         7.58348        -0.73602
C         24.45834         8.33189        -0.82515
C         25.72222        10.39367        -0.30831
C         24.50170         9.73811        -0.57891
C         25.71244        11.83764         0.11411
C         24.51178        12.59926        -0.40983
C         25.83343        14.70187        -0.46790
C         24.54059        13.98960        -0.50916
C         25.77905        16.14654        -0.12608
C         24.59281        16.87264        -0.61568
C         25.93603        19.04294        -0.40294
C         24.66837        18.32933        -0.78373
C         25.87965        20.51025        -0.08448
C         24.53292        21.20421         0.02047
C         25.76346        23.28521         0.69704
C         24.44892        22.54213         0.61067
C         25.62298        24.59075         1.44010
C         24.35022        25.32889         1.28695
C         25.64815        27.48259         1.20092
C         24.35466        26.75648         1.49475
C         25.67886        28.87671         1.82817
C         24.35940        29.61519         1.78077
C         25.64024        31.81115         1.92065
C         24.37978        31.05326         2.25787
C         25.62582        33.18052         1.72565
C         24.35031        33.88189         1.56695
C         25.59478        36.06831         1.17600
C         24.38196        35.23692         0.89667
C         25.59750        37.41796         0.91588
C         24.34725        38.12963         0.73613
C         25.67991        40.26588         0.82927
C         24.38367        39.60547         0.39777
C         25.71590        41.71424         1.07113
C         24.40948        42.47218         1.12829
C         25.72249        44.66187         1.00583
C         24.42129        43.92665         0.65715
C         25.71932        46.14592         0.68063
C         24.41296        46.83380         0.38555
C         25.64709        48.55082        -1.06600
C         24.40490        48.06546        -0.41950
C         25.66523        49.98056        -1.44356
C         24.48078        50.73805        -1.35123
C         25.79537        52.81195        -1.43130
C         24.54982        52.13727        -1.31624
C         25.83953        54.25932        -1.27810
C         24.59812        54.99125        -1.47124
C         25.82973        57.12642        -0.96610
C         24.73176        56.46879        -1.79899
C         25.82792        58.50881        -0.71356
C         24.69603        59.33433        -0.90449
C         24.68219        60.70019        -0.62208
C         26.89953         8.25644        -0.47181
C         28.18209        10.35354        -0.07588
C         26.95273         9.66857        -0.27750
C         28.24583        11.78405        -0.04174
C         27.04151        12.50966        -0.10503
C         28.34098        14.68466         0.06400
C         27.10196        13.95812        -0.27036
C         28.35324        16.07082         0.21636
C         27.07376        16.83404         0.18518
C         28.28052        18.95737         0.41222
C         27.12765        18.29782         0.05036
C         28.24225        20.39463         0.68868
C         27.06295        21.10709         0.56720
C         28.19013        23.18531         1.44591
C         26.88718        22.41658         1.30924
C         28.19151        24.57970         1.62837
C         26.91192        25.31433         1.70923
C         28.13634        27.46120         1.59919
C         26.92029        26.76838         1.62115
C         28.16312        28.89113         1.48014
C         26.87431        29.67030         1.29760
C         28.19644        31.80537         1.71367
C         26.91261        31.06236         1.91679
C         28.09966        33.25322         1.45509
C         26.87880        33.89389         1.50868
C         27.89942        35.89209         0.35305
C         26.92232        35.40181         1.42424
C         28.02979        37.40491         0.47678
C         26.87099        38.12143         0.73438
C         28.15508        40.24724         0.71419
C         26.87720        39.56492         0.77541
C         28.18037        41.70288         0.80058
C         27.01122        42.42135         0.90149
C         28.29549        44.60995         0.74119
C         27.02994        43.90441         1.01414
C         28.30314        46.04060         0.39162
C         27.00941        46.77141         0.20818
C         28.23928        48.57508        -1.12929
C         26.96325        47.85258        -0.83555
C         28.10152        49.80830        -1.96592
C         26.88235        50.62580        -1.71959
C         28.76846        53.15432        -0.93926
C         26.92998        52.02644        -1.75268
C         28.23087        54.28575        -0.39687
C         26.99790        54.94449        -0.82690
C         26.92552        56.34078        -0.58815
C         29.48985        12.50539        -0.00568
C         30.77342        14.65127         0.12813
C         29.55464        13.91677         0.09154
C         30.81909        16.04706         0.29959
C         29.57173        16.78198         0.46835
C         30.56182        18.93644         1.23755
C         29.48354        18.19809         0.71785
C         30.67614        20.35003         1.23377
C         29.44673        21.07518         1.13679
C         30.64336        23.08132         1.89549
C         29.39816        22.44805         1.45244
C         30.65140        24.62417         2.02494
C         29.39149        25.33223         1.75776
C         30.63076        27.47565         1.74449
C         29.39321        26.74308         1.70376
C         30.60509        28.88277         1.64182
C         29.37633        29.57591         1.47181
C         30.65457        31.74570         1.23890
C         29.34052        31.03212         1.05035
C         30.63560        33.25838         1.21371
C         29.30175        33.93275         0.96552
C         30.32505        35.86168        -0.37020
C         29.23057        35.18719         0.43541
C         30.45122        37.35071        -0.10601
C         29.27675        38.07951         0.23602
C         30.53689        40.22797         0.01274
C         29.30377        39.50894         0.40325
C         30.73514        41.62191         0.50878
C         29.50317        42.39029         0.90607
C         30.86391        44.53403         0.30551
C         29.55080        43.88864         0.84350
C         30.74392        45.83993        -0.41981
C         29.46110        46.58126        -0.39934
C         30.76532        48.78497        -0.61873
C         29.44081        48.02861        -0.78974
C         30.88689        50.15125        -1.28676
C         30.41109        51.29512        -0.83621
C         30.00245        52.51456        -0.47897
C         32.07935        16.73105         0.06909
C         33.20204        19.02247         0.23419
C         32.36173        17.96273         0.65106
C         33.16503        20.36293         0.70834
C         31.97226        21.00762         1.31919
C         33.06253        23.19603         1.93246
C         31.92495        22.38454         1.67653
C         33.11843        24.59470         1.84919
C         31.92078        25.36157         1.87773
C         33.13627        27.51002         1.70192
C         31.89694        26.77042         1.80889
C         33.12961        28.88210         1.49298
C         31.88077        29.66297         1.85586
C         33.15276        31.84546         1.35715
C         31.83390        31.09042         1.35135
C         33.05843        33.13830         0.55298
C         31.73996        33.73924         0.31181
C         32.91366        35.83401        -0.50015
C         31.64948        35.10953        -0.32638
C         32.90384        37.26355        -0.56875
C         31.69454        37.97928        -0.36473
C         33.06901        40.13682        -0.40423
C         31.75256        39.45410        -0.41340
C         33.12944        41.53255        -0.23585
C         31.97790        42.31453         0.06947
C         33.17304        44.35778        -0.68311
C         32.00359        43.70311        -0.08669
C         33.14551        45.74985        -0.99561
C         31.99527        46.55460        -0.79434
C         31.96346        47.92424        -0.97509
C         34.27628        21.14646         0.23618
C         35.52002        23.36495         0.34514
C         34.73644        22.32535         0.84333
C         35.61659        24.64139         1.02699
C         34.45536        25.26127         1.77138
C         35.64501        27.50944         1.33840
C         34.43164        26.78708         1.76554
C         35.59039        28.84012         0.97612
C         34.33630        29.59745         1.12738
C         35.55382        31.66069         0.51660
C         34.31974        30.96510         0.92407
C         35.46742        33.08123         0.05965
C         34.15072        33.74955        -0.01096
C         35.34547        35.78763        -0.86422
C         34.11329        35.11419        -0.49111
C         35.33420        37.21408        -1.03353
C         34.15792        37.95425        -0.78920
C         35.48592        40.06555        -0.95875
C         34.22446        39.38296        -0.70681
C         35.56524        41.44997        -0.83031
C         34.45827        42.24642        -0.22108
C         34.35162        43.62866        -0.79859
C         36.76046        25.37764         0.84362
C         38.09527        27.44936         0.77333
C         36.95447        26.75342         1.44153
C         38.02952        28.77963         0.37931
C         36.79162        29.51186         0.52201
C         37.90577        31.51471        -0.34277
C         36.76275        30.87423         0.17809
C         37.81306        32.85633        -0.95382
C         36.52905        33.62225        -0.83722
C         37.67551        35.65128        -1.84689
C         36.51537        35.06659        -1.08337
C         37.72111        37.14228        -1.69729
C         36.58770        37.88159        -1.36189
C         36.62090        39.30135        -1.33577
C         39.19952        29.47453        -0.07246
C         40.33909        31.56700        -0.81137
C         39.15195        30.82315        -0.41420
C         40.30192        32.88610        -1.14021
C         39.05224        33.62381        -1.23539
C         38.98709        34.94638        -1.56114
O         20.11394        48.14128        -2.30353
O         34.26795        22.53716         2.15961
O         14.41154        25.67201         2.56510
O         23.40282        58.29052        -2.77835
O         18.00096        28.14450         2.80571
O         12.69599        25.35256        -0.53836
O         18.38734        49.29416         0.65069
O         19.33367        22.45880        -1.81111
O         16.62971        43.37209         1.78263
O         29.06348        31.03286        -0.34875
O         11.63753        33.43839        -1.34074
O         30.38098        41.79071         1.91639
O         25.59207        18.77161        -1.82249
O         36.80910        32.84100        -2.06549
O         35.91231        32.80844         1.43647
O          9.99592        29.32104        -1.44428
O         13.00137        41.25554         1.94983
O         27.81753        31.32123         3.04329
O         26.07291        24.69123         2.82421
O         30.56533        23.74843         3.19549
O         15.41004        20.29422         1.14095
O         23.28057         6.32407        -3.15875
O         14.66599        19.08365        -2.09276
O         14.16286        30.48514         2.49094
O         19.27734        38.76293        -0.74001
O         14.96339        42.00340        -1.00172
O         30.54467        44.54350         1.72249
O         19.20720        14.59836        -3.27728
O         26.33153        44.37937         2.26982
O         29.79857        45.73062        -1.55633
O         26.62273        14.40421        -1.67052
O         21.02141        44.72694         2.16268
O         26.17338        47.54489        -2.02926
O         17.43069        45.97845        -1.51482
O         28.16902        52.58414        -2.07316
O         20.41703        16.74244        -3.00758
O         25.33252        21.24667        -1.24294
O         17.43566        19.29807        -2.67077
O         21.78478        55.80574        -2.80558
O         20.96563        20.38986         0.72362
O         31.49283        33.87976        -1.12048
O         19.65375         9.99448        -0.75311
O         34.71624        26.00313         3.00366
O         28.89656        50.06750        -2.85636
O         25.12880        46.97783         1.71632
O         21.78066        19.14158        -2.56245
O         18.82671        25.44848        -0.67143
O          9.54867        27.21275         2.10983
O         13.57490        37.63961         2.07054
O         31.61053        18.23316         1.82062
O         27.86268        47.07304         1.35819
O         26.12554        16.43926         1.27549
O         23.17502        19.24304         0.81766
O         25.07844        42.14235         2.36931
O         30.83648        40.06532        -1.41102
O         21.31744        23.97630        -1.50780
H         20.70678        23.59060        -2.18284
O         18.66529        22.84036         1.79009
H         17.84250        22.73558         2.31309
O         27.43721        35.88026         2.69828
H         26.86313        35.53308         3.41234
O         29.86480        35.77517        -1.76564
H         30.14573        34.88392        -2.08541
O         23.03970        49.67762        -2.90443
H         23.78740        49.09681        -3.16055
O         30.81910        49.03597         0.81640
H         30.70248        48.18759         1.29443
O         12.36824        30.55632        -1.34556
H         11.54414        30.07092        -1.67093
O         24.35368        43.92583        -0.78460
H         23.46395        43.63452        -1.07745
O          9.26242        35.18705         1.71254
H          9.26740        36.11137         2.04297
O         27.30478        35.60059        -0.93884
H         28.02808        35.71948        -1.60910
O         26.47198        22.01794         2.64333
H         26.38164        22.84570         3.17721
O         21.79373        42.23617         2.91861
H         21.26698        42.98512         3.27862
O         31.03505        33.70903         2.54384
H         30.48107        33.24480         3.20650
O          7.05542        30.94697         1.82190
H          6.20485        30.56066         2.12106
O         13.57569        36.25253        -1.28048
H         13.44590        35.39937        -1.74830
O         26.69648        29.91724        -0.12169
H         27.56288        30.35158        -0.44438
O         26.16747        23.68816        -0.63680
H         25.96895        22.93430        -1.24898
O         21.15020        45.09612        -1.46787
H         21.10693        45.76493        -2.18825
O         33.46026        32.19626         2.74539
H         34.35914        32.60689         2.73314
O         23.45571        53.08427         0.56522
H         23.43475        52.18862         0.96483
O         21.75736         5.56668         0.11889
H         22.40550         4.94124         0.50585
O         20.51591        31.95732         3.62158
H         20.81966        31.08984         3.99337
O         18.10478        45.54143         1.67957
H         17.77391        44.97069         2.41055
O         17.16312        29.50497        -0.41128
H         16.40254        29.91705        -0.87391
O         23.55597        44.97326         2.59264
H         22.76729        45.36299         3.02852
O         25.53616        11.82160         1.59377
H         24.75016        11.26659         1.78668
O         25.70118        27.50894        -0.24429
H         26.14975        28.34887        -0.53396
O         25.94113        28.69564         3.25399
H         25.33121        28.00457         3.59179
O         21.95981        29.51204         3.74816
H         22.79762        29.98032         4.01989
O         24.53260        34.90237        -0.54315
H         25.47533        35.06492        -0.80593
O         21.91973        38.18305        -1.12562
H         21.00178        38.42732        -1.41197
O         18.33037        37.83401         2.65105
H         17.60031        37.40489         3.14632
O         25.20218        56.52253        -3.16720
H         24.82322        57.34378        -3.56242
O         24.44511         7.07972        -3.56171
H         25.14041         6.38498        -3.66424
O         31.99249        29.82465         3.31651
H         32.61191        30.57880         3.47441
O         34.81677        42.41626         1.21682
H         34.04433        42.82937         1.66114
O         37.39289        35.35830        -3.27111
H         37.17448        34.39509        -3.30735
O         21.87407        26.38025         3.31626
H         21.78878        27.24043         3.78816
O         17.86197        31.82389         3.33100
H         18.72917        32.05806         3.75501
O         24.38508        30.93365         3.73973
H         25.19225        30.40628         3.96496
O         37.31719        26.62641         2.85374
H         36.51274        26.28333         3.31757
O         24.38837        39.68149        -1.06979
H         23.61511        39.14398        -1.37982
O         21.40478        56.98837         0.57475
H         20.69073        57.32121         1.15914
O         11.78293        26.26609         2.88276
H         10.87192        26.48467         3.19152
O          7.16093        33.60932        -2.19569
H          8.01353        33.99626        -2.48906
H          4.84647        31.20685         0.13699
H          4.85347        33.53916        -0.55229
H          7.43187        26.76012        -0.35887
H          6.11719        28.94458         0.14087
H          6.16378        35.79829        -0.78632
H          7.36299        37.93504        -0.59907
H          9.85880        22.50931         0.40877
H          8.53895        24.60169         0.45797
H          8.52729        40.06935        -0.27163
H          9.66708        42.22019        -0.11314
H         12.33726        18.31983        -0.12129
H         11.07658        20.45250         0.17546
H         10.87820        44.45955        -0.01363
H         12.07586        46.63306         0.27280
H         15.09867        14.16798        -1.35501
H         13.78464        16.15822        -0.66414
H         13.48467        48.88082         0.12895
H         14.86093        50.94493        -0.14519
H         17.66246        10.36644        -3.41600
H         16.36011        12.24208        -2.48156
H         16.16119        52.96098        -0.59901
H         17.45189        55.02056        -0.82972
H         19.99954         5.84732        -2.42440
H         19.32504         7.98945        -3.42766
H         18.73763        57.11724        -0.90730
H         20.02088        59.26772        -0.83326
H         23.21399         2.37353        -1.95623
H         21.06524         3.59671        -1.98742
H         23.51985        62.53034        -0.49390
H         21.32414        61.43807        -0.80043
H         25.31494         3.48345        -1.20704
H         26.58553         5.58954        -0.71913
H         26.73166        58.95959        -0.27294
H         25.61495        61.20541        -0.33309
H         27.83364         7.67706        -0.42050
H         29.11653         9.77423        -0.04088
H         28.79609        54.79077         0.40138
H         27.77775        56.83054        -0.09154
H         30.42904        11.93173        -0.01087
H         31.72162        14.10465         0.01600
H         31.49593        50.18334        -2.20996
H         30.60883        53.08523         0.24807
H         32.77570        16.29142        -0.66065
H         33.99063        18.78064        -0.49555
H         34.07305        46.22453        -1.34816
H         32.89183        48.43821        -1.26845
H         34.83795        20.75220        -0.62504
H         36.13044        23.21262        -0.55737
H         36.51521        41.96072        -1.04942
H         35.26379        44.12371        -1.16311
H         37.58267        24.93988         0.25739
H         39.05603        26.91547         0.71665
H         38.65125        37.67194        -1.95455
H         37.56163        39.82128        -1.57046
H         40.15197        28.92720        -0.12892
H         41.30159        31.03477        -0.79841
H         41.23228        33.41663        -1.39108
H         39.91921        35.49201        -1.77776
