         314
 CSIRO Nanostructure Databank - Neutral Graphene Oxide Data Set
C         30.56668        57.16956         1.61171
C         30.55643        58.58620         1.64984
C         29.40586        59.30239         2.04272
C         30.56638        61.41994         1.79922
C         29.41769        60.70305         2.10405
C         32.92870        52.93007         0.90826
C         32.82581        54.31257         0.73153
C         31.72128        55.04059         1.21260
C         32.90037        57.17831         0.79235
C         31.70313        56.45330         1.20412
C         32.90758        58.62601         0.88322
C         31.75352        59.31188         1.30239
C         32.94654        61.45272         1.14262
C         31.76032        60.74881         1.40416
C         35.13045        48.52236         1.02207
C         34.77697        49.76122         0.44907
C         34.03513        50.78714         1.02049
C         35.21752        52.78695        -0.01681
C         34.06508        52.15247         0.54886
C         35.21165        54.25175        -0.21060
C         33.94204        55.04488         0.10396
C         35.21093        57.22127        -0.23709
C         33.99717        56.50114         0.30132
C         35.29386        58.65753         0.23407
C         34.11745        59.34127         0.60814
C         35.34269        61.47543         0.58578
C         34.13778        60.77523         0.78531
C         38.07696        44.62794         1.02527
C         37.90987        45.92256         0.49052
C         36.78959        46.64936         1.06023
C         37.69720        48.60571        -0.84507
C         36.10694        47.67733         0.43347
C         37.67944        50.02455        -0.84477
C         36.47159        50.74400        -0.66785
C         37.69586        52.84166        -0.48597
C         36.45106        52.12048        -0.35227
C         37.70799        54.28031        -0.28604
C         36.50607        54.96700        -0.17329
C         37.77006        57.17118         0.22340
C         36.47820        56.43146         0.09858
C         37.76797        58.64801         0.06002
C         36.52857        59.34669         0.18944
C         37.77283        61.47728         0.23314
C         36.54582        60.78586         0.33156
C         40.33425        40.20803         1.12320
C         40.29988        41.57534         0.77043
C         39.19859        42.42322         1.08177
C         40.05680        44.23566        -0.34776
C         39.12556        43.76144         0.62506
C         40.02440        45.63041        -0.96952
C         38.88640        46.47046        -0.40866
C         40.13098        48.57453        -0.99559
C         38.89251        47.86198        -0.76334
C         40.10783        49.98362        -1.10878
C         38.91425        50.73458        -0.89906
C         40.14023        52.90082        -0.97133
C         38.90121        52.15938        -0.77928
C         40.11401        54.34830        -0.80483
C         38.97713        54.99420        -0.38295
C         40.24034        57.22132        -0.39619
C         39.09168        56.40893         0.16583
C         40.22594        58.64390        -0.23528
C         38.97859        59.34436        -0.03408
C         40.21008        61.49015        -0.03672
C         38.98355        60.78984         0.03273
C         42.74178        35.82208         0.98373
C         42.75556        37.21709         0.79764
C         41.53230        37.93875         0.79042
C         42.78907        40.07357         0.35898
C         41.52121        39.38463         0.90541
C         42.69824        41.52892        -0.07098
C         41.34103        42.13827        -0.05113
C         42.85154        44.36977        -1.29985
C         41.01998        43.31180        -0.74859
C         42.63686        45.73431        -0.92206
C         41.38654        46.38973        -0.87536
C         42.59091        48.56938        -0.91170
C         41.38658        47.83930        -0.90585
C         42.63590        49.98368        -1.29112
C         41.32605        50.75384        -1.40258
C         42.58283        52.95894        -1.67181
C         41.31266        52.22619        -1.26831
C         42.62889        54.40133        -1.10920
C         41.29946        55.14291        -1.32829
C         42.64520        57.28137        -0.86791
C         41.39561        56.56896        -0.80673
C         42.65933        58.68386        -0.57182
C         41.42822        59.37188        -0.35305
C         42.65901        61.50781        -0.20387
C         41.43206        60.81125        -0.20133
C         45.26982        33.00606         1.28172
C         44.04913        33.63850         1.22936
C         45.30371        35.88272         1.18635
C         43.95761        35.09378         1.30861
C         45.24075        37.24918         0.63487
C         44.00639        37.89937         0.51262
C         45.19348        40.02512        -0.25600
C         43.89558        39.21156        -0.24476
C         45.15534        41.34684        -1.05176
C         43.94110        42.18530        -0.63147
C         45.20104        44.32542        -0.69842
C         43.98932        43.63445        -1.01625
C         45.16115        45.73181        -0.55027
C         43.86012        46.41587        -0.47187
C         45.15608        48.63000        -0.70279
C         43.85199        47.96158        -0.48790
C         45.17480        50.04262        -0.95044
C         43.87480        50.75895        -0.96729
C         45.14934        52.92799        -1.43500
C         43.84453        52.23825        -1.17946
C         45.15229        54.44414        -1.57040
C         43.83098        55.21879        -1.69215
C         45.10524        57.28320        -0.91696
C         43.87734        56.61018        -1.09356
C         45.11766        58.69565        -0.64537
C         43.88886        59.39487        -0.52931
C         45.11489        61.51758        -0.22481
C         43.89085        60.82688        -0.32110
C         46.49805        33.70945         1.20518
C         47.72400        35.78741         0.66945
C         46.53943        35.09856         1.00875
C         47.71439        37.16939         0.36363
C         46.47195        37.86149         0.26874
C         47.74174        39.86223        -0.69590
C         46.48723        39.30179        -0.05749
C         47.74380        41.38501        -0.69857
C         46.46642        42.15025        -0.88646
C         47.61120        44.32167        -0.35061
C         46.42863        43.61350        -0.57067
C         47.61194        45.75697        -0.30504
C         46.35884        46.46437        -0.41439
C         47.63522        48.54808        -0.81253
C         46.33983        47.89173        -0.55730
C         47.64109        50.03078        -1.09970
C         46.36769        50.77187        -1.01861
C         47.59675        52.93442        -1.05355
C         46.39897        52.20486        -1.10739
C         47.54099        54.37659        -0.98191
C         46.38237        55.13286        -1.14123
C         47.54598        57.27947        -0.65020
C         46.36322        56.56867        -0.91407
C         47.57878        58.70046        -0.49657
C         46.35155        59.40444        -0.49100
C         47.57563        61.50992        -0.09842
C         46.35203        60.83198        -0.27546
C         48.95063        37.88896         0.19974
C         50.20666        39.98923        -0.03995
C         49.00445        39.23719        -0.14424
C         50.22976        41.39676        -0.02849
C         48.90987        42.08666        -0.07593
C         50.16202        44.28728        -0.07833
C         48.85599        43.57698        -0.02524
C         50.11694        45.77587        -0.05110
C         48.81659        46.47970        -0.12199
C         50.03997        48.61709        -0.08125
C         48.86741        47.89587        -0.30201
C         50.15880        50.03405        -0.46482
C         48.92983        50.77186        -0.95157
C         50.06144        52.91811        -0.69779
C         48.87444        52.24807        -0.84735
C         50.05561        54.37630        -0.87040
C         48.77615        55.06660        -0.56749
C         50.09574        57.26991        -0.45132
C         48.79925        56.55034        -0.42585
C         50.06994        58.71246        -0.27983
C         48.82512        59.39515        -0.28585
C         50.03359        61.51517         0.12420
C         48.81659        60.82433        -0.09215
C         51.38968        42.14887         0.24848
C         52.54494        44.32353         0.59898
C         51.40099        43.57096         0.32750
C         52.55879        45.76355         0.69158
C         51.25791        46.48201         0.59277
C         52.46656        48.75687         0.84711
C         51.18862        47.99628         0.61066
C         52.60695        50.14564         0.34756
C         51.31345        50.82752         0.08013
C         52.61350        52.99552        -0.30845
C         51.30597        52.29208        -0.17453
C         52.58463        54.33935        -0.60346
C         51.32943        55.11870        -0.78511
C         52.54673        57.26674        -0.24941
C         51.27500        56.57259        -0.49366
C         52.54417        58.74176        -0.13296
C         51.28800        59.42385        -0.10134
C         52.50570        61.50640         0.41264
C         51.27921        60.84464         0.13324
C         53.71832        46.48440         0.88449
C         54.98665        48.72516         0.96235
C         53.74065        47.94988         1.04283
C         55.00637        50.09195         0.81426
C         53.81242        50.82835         0.35224
C         55.04774        52.90355        -0.45615
C         53.87073        52.24033        -0.12330
C         55.09561        54.32125        -0.88658
C         53.81109        55.08919        -0.91199
C         55.09425        57.31636        -0.60161
C         53.82081        56.53314        -0.50790
C         55.04610        58.73870        -0.12714
C         53.74112        59.41750         0.06799
C         54.96869        61.41797         0.79809
C         53.74026        60.81544         0.41624
C         56.21810        50.76362         1.30852
C         57.94295        52.54485         1.44086
C         56.80242        51.87604         0.79957
C         58.68771        53.56348         1.01816
C         56.38523        55.09117        -0.65801
C         57.24768        57.06767         0.56340
C         56.28194        56.51175        -0.23934
C         57.36518        58.49779         0.81121
C         56.24032        59.29581         0.53441
C         57.34393        61.23412         1.49143
C         56.17829        60.67253         0.93921
C         59.59835        54.53265         0.87010
C         60.13891        57.00370         1.03898
C         59.27628        55.94738         1.06794
C         59.85183        58.40174         1.37764
C         58.58474        59.08487         1.31051
C         59.70929        61.15791         2.08990
C         58.53908        60.48720         1.63199
C         60.98126        59.13551         1.77480
C         60.91297        60.48617         2.15367
O         47.68220        39.52175        -2.16141
O         48.64853        42.77239         1.19498
O         43.69477        42.20188         0.81157
O         47.69769        49.06131        -2.19178
O         49.95132        50.30763        -1.89505
O         57.47722        54.58902        -0.88539
O         35.28371        50.05459        -0.84608
O         50.99749        51.74784         1.18286
O         55.23807        58.36473        -1.58232
O         45.29627        53.57278        -2.74424
O         41.79675        43.65031        -1.87183
O         57.93351        56.14858         1.35128
O         54.45823        54.70567        -2.16067
O         36.99945        56.77023         1.43543
O         42.06570        50.29435        -2.61300
O         43.72691        47.20378         0.75173
O         36.48160        47.93316        -0.91037
O         44.66322        35.69115         2.46419
O         43.72021        51.69640         0.16456
O         34.27337        54.67406        -1.29820
O         45.89079        40.14148         1.00308
O         53.30848        56.62428         0.87159
O         50.69912        54.82632        -2.11740
O         42.66779        39.89147         1.74852
O         56.33919        52.40967        -0.40256
O         48.71517        55.65364         0.77157
O         50.39359        45.05779        -1.31073
O         52.96097        48.50189         2.18984
O         47.38809        41.92262        -2.01486
O         50.80513        47.18857         1.77975
O         43.54458        38.89214        -1.61347
H         44.00370        39.52781        -2.21939
O         39.73488        45.47481        -2.39008
H         40.40293        44.84562        -2.74741
O         41.01529        55.26405        -2.74154
H         41.87758        55.44664        -3.20024
O         43.62594        55.45488        -3.10815
H         43.89721        54.62231        -3.56917
O         47.46989        38.10086        -2.29262
H         48.38332        37.74591        -2.42253
O         42.84018        54.27900         0.30795
H         42.44884        55.05545         0.76142
O         44.99937        41.02916        -2.45032
H         45.91198        40.99819        -2.83621
O         42.61221        52.99532        -3.11203
H         42.42283        52.07833        -3.42557
O         39.50781        56.19929         1.55622
H         38.67731        56.15435         2.08813
O         35.09583        57.26224        -1.68810
H         34.77690        56.36778        -1.97009
H         29.65964        56.61857         1.90240
H         28.49196        58.75011         2.30463
H         30.56836        62.51734         1.86679
H         28.50686        61.23737         2.40894
H         32.09321        52.41131         1.40217
H         30.85738        54.49423         1.61990
H         32.96308        62.54777         1.24799
H         34.79613        48.30137         2.04495
H         33.38727        50.56578         1.88133
H         35.35534        62.57198         0.67235
H         37.34793        44.26722         1.76600
H         36.41769        46.29755         2.03392
H         37.78480        62.57206         0.34031
H         39.43050        39.73540         1.53287
H         38.40430        42.04425         1.74100
H         40.20826        62.58647         0.05481
H         41.78264        35.28264         0.95912
H         40.57932        37.39024         0.81783
H         42.65788        62.59997        -0.07075
H         45.30200        31.90695         1.28685
H         43.12478        33.05668         1.10220
H         45.10815        62.60612        -0.06544
H         47.43550        33.13692         1.15667
H         48.67757        35.23876         0.65248
H         47.56573        62.59889         0.05854
H         49.88250        37.37636         0.48499
H         51.13624        39.44495         0.18952
H         50.00548        62.60158         0.29594
H         52.33718        41.60980         0.40235
H         53.48970        43.79482         0.79867
H         52.48944        62.57930         0.65589
H         54.68385        45.95600         0.90356
H         55.92047        48.21279         1.24255
H         54.97303        62.47948         1.08774
H         56.68072        50.30960         2.19812
H         58.16185        52.16821         2.46071
H         57.34321        62.29202         1.79434
H         60.58590        54.28550         0.44123
H         61.20267        56.77252         0.87716
H         59.64393        62.22195         2.35770
H         61.95561        58.62645         1.80394
H         61.82375        61.00469         2.48335
