         272
 CSIRO Nanostructure Databank - Neutral Graphene Oxide Data Set
C        -10.88332         0.85470         1.70215
C         -9.97279         1.57777         0.77841
C         -8.76409         0.83010         0.32903
C         -7.53423         1.62024        -0.04145
C         -6.28385         0.89098        -0.41402
C         -4.97300         1.66835        -0.57178
C         -3.69146         0.80408        -0.53691
C         -2.42040         1.54415        -0.97951
C         -1.11740         0.70397        -0.75449
C          0.12064         1.48708        -1.22969
C          1.41858         0.79329        -1.04055
C          2.60555         1.44943        -0.76972
C          3.82294         0.71740        -0.46533
C          4.97902         1.51527         0.12591
C          6.31981         0.80122         0.06037
C          7.49294         1.51814         0.66458
C          8.79055         0.77031         0.63970
C         10.08104         1.51799         0.69984
C         11.28032         0.70695         1.07049
C         -9.96475         3.05561         0.62285
C         -8.79223         3.75622         0.38208
C         -7.49400         2.98251         0.65177
C         -6.21267         3.86587         0.39292
C         -4.91248         3.00129         0.20825
C         -3.59524         3.68787        -0.03047
C         -2.28209         2.84894        -0.16015
C         -1.05612         3.68946        -0.54084
C          0.12726         2.98152        -1.13939
C          1.44632         3.70597        -1.19420
C          2.71522         2.92550        -0.98236
C          3.96469         3.66554        -0.63029
C          5.08321         2.98318        -0.26956
C          6.42817         3.70955        -0.17799
C          7.54011         2.99069         0.56300
C          8.84720         3.71194         0.67969
C         10.01658         3.00488         0.81105
C         -8.73795         5.15073         0.14566
C         -7.56261         5.83740        -0.28993
C         -6.36085         4.98516        -0.64271
C         -5.01680         5.73348        -0.83370
C         -3.68399         5.05732        -0.63332
C         -2.41123         5.86850        -0.81029
C         -1.10184         5.17580        -0.61353
C          0.10828         5.94060        -1.06894
C          1.40643         5.21385        -1.14366
C          2.66178         5.95025        -0.76609
C          3.94369         5.16787        -0.62972
C          5.03676         5.82796         0.17557
C          6.30324         5.10053         0.41353
C          7.56257         5.84821         0.68679
C          8.75700         5.16168         0.77435
C         -7.50446         7.21000        -0.39048
C         -6.29508         7.94443        -0.90370
C         -4.99700         7.22712        -0.47471
C         -3.76734         8.03528        -0.91496
C         -2.43428         7.35179        -1.02080
C         -1.18188         8.16115        -0.79381
C          0.10833         7.41244        -0.72830
C          1.13663         7.87271         0.28245
C          2.49514         7.17723         0.12808
C          3.71407         7.86329         0.64621
C          5.04634         7.35121         0.08014
C          6.25727         7.97052         0.74817
C          7.43437         7.27740         0.90487
C         -6.24985         9.37757        -0.40337
C         -5.10394        10.04146        -0.16261
C         -3.77890         9.48940        -0.55272
C         -2.51778        10.14438        -0.13812
C         -1.28252         9.50511        -0.15864
C         -0.05208        10.10117         0.25169
C          1.18187         9.38652         0.38848
C          2.37264        10.01528         0.70773
C          3.59772         9.27517         1.21690
C          4.91113        10.01847         1.09408
C          6.11180         9.40006         0.99126
C        -10.79123        -0.47228         1.91185
C         -9.80929        -1.36185         1.16607
C         -8.55059        -0.56233         0.83491
C         -7.31247        -1.29216         0.43107
C         -6.27439        -0.62693        -0.43841
C         -5.05617        -1.40404        -0.85326
C         -3.73304        -0.67474        -0.80985
C         -2.51367        -1.41306        -1.34595
C         -1.19666        -0.66588        -1.42991
C          0.10797        -1.40192        -1.35958
C          1.29865        -0.65753        -0.80250
C          2.56599        -1.41340        -0.51599
C          3.84546        -0.66329        -0.48411
C          5.10554        -1.44077        -0.31792
C          6.36540        -0.68308         0.03278
C          7.41379        -1.40231         0.87971
C          8.73448        -0.64740         1.11516
C          9.98819        -1.41639         1.38317
C         11.25524        -0.63318         1.25706
C         -9.47208        -2.66252         1.92795
C         -8.36261        -3.47881         1.28423
C         -7.21521        -2.76594         0.69294
C         -6.05719        -3.55150         0.15161
C         -5.01661        -2.95464        -0.81593
C         -3.65125        -3.52731        -0.37212
C         -2.48698        -2.91049        -1.17651
C         -1.15474        -3.60842        -1.06776
C          0.13347        -2.88913        -1.33261
C          1.30043        -3.57786        -1.16847
C          2.51723        -2.90711        -0.65680
C          3.76520        -3.66837        -0.42383
C          5.04460        -2.92636        -0.17022
C          5.77421        -3.76061         0.89342
C          7.85127        -2.74194         0.22980
C          8.81377        -3.60632         0.99664
C          9.93093        -2.91987         1.41003
C         -8.18712        -4.83630         1.60568
C         -7.13531        -5.62117         1.11831
C         -6.19543        -5.04952         0.13219
C         -5.02013        -5.85375        -0.35945
C         -3.69482        -5.09479        -0.39206
C         -2.41953        -5.86424        -0.61492
C         -1.13026        -5.09778        -0.86637
C          0.09635        -5.86598        -1.29832
C          1.37318        -5.04372        -1.58129
C          2.69366        -5.81033        -1.23440
C          3.95515        -5.07411        -0.90639
C          5.29036        -5.76274        -0.58600
C          6.05234        -5.24765         0.65261
C          7.49828        -5.75428         0.57410
C          8.65312        -5.05354         0.89345
C         -6.70581        -6.90615         1.79607
C         -6.12962        -7.91592         0.79444
C         -4.94327        -7.31960         0.01793
C         -3.62644        -8.02022        -0.02624
C         -2.43764        -7.36839        -0.69424
C         -1.13827        -8.11124        -0.71383
C          0.11489        -7.35770        -1.11923
C          1.41656        -8.03120        -0.78396
C          2.68560        -7.24806        -0.79576
C          3.99493        -7.95365        -0.65241
C          5.16494        -7.26175        -0.44007
C          6.40411        -7.91830        -0.06278
C          7.52295        -7.18132         0.33705
C         -5.76728        -9.25257         1.42030
C         -4.54072        -9.79488         1.46029
C         -3.30575        -9.01266         1.08154
C         -2.04758        -9.82098         0.81669
C         -1.00928        -9.37639         0.07257
C          0.34270       -10.10216         0.14465
C          1.41367        -9.55538        -0.83995
C          2.78845       -10.12767        -0.57046
C          3.95784        -9.40420        -0.50533
C          5.23440       -10.06102        -0.27222
C          6.39013        -9.36342        -0.07627
O         -0.76482         4.52672         0.64673
O         -2.05913        -8.11247        -1.86914
O          5.47734        -2.37496        -1.42794
O         -0.93161        -4.21277         0.27251
O          1.64561        -1.01571         0.56400
O         -9.88736         0.93484        -0.59332
O         -2.79784        -2.30864        -2.45574
O         -4.63475        -8.29076        -1.04530
O         -6.05905         4.63009         1.59512
H         -6.53784         4.05495         2.27974
O         -2.61818         1.77497        -2.37326
H         -1.75717         2.04093        -2.79127
O         -2.91407        -5.57207         0.74582
O         -5.23326        -3.41646        -2.14295
H         -5.85381        -2.80265        -2.59553
O         -4.07683         3.35977         1.31386
O          0.66339         7.32445         1.60010
O          5.17382         7.71267        -1.26495
O         -5.96354        -3.02831         1.48916
O         -2.36252         6.46553        -2.15690
O          3.65554         5.93827        -1.83136
O          3.04120         6.87293         1.46962
O         -0.10719         2.30052        -2.41895
O          1.39788        -4.87513        -3.01975
H          1.14202        -5.73170        -3.43327
O         -1.99537         2.39310         1.16511
H         -1.76254         3.17379         1.71434
O         -4.35864         5.11867        -1.96007
O          6.81234        -1.50567         2.16870
H          7.53403        -1.51013         2.84292
O          1.91253        -7.45409         0.46968
O          9.52666         0.99920        -0.58952
O         -6.12213        -5.57394        -1.24766
O         -6.07427        -1.03165        -1.83603
O         -3.90779         9.00015        -1.98939
O          5.28475         5.23102         1.47038
O         -3.53094        -0.12126         0.55227
O         -7.20944         1.45244        -1.43872
O         -0.19888         8.22015        -1.88714
O         -0.40392        -0.83678        -2.62456
O         -3.44121        -3.10969         0.97499
H         -2.77104        -3.71590         1.37410
O          6.91636         3.85280        -1.53335
H          6.26922         4.37252        -2.05642
O          6.76048         0.09838        -1.13484
O          5.49530        -5.91232         1.80610
O          0.84771       -10.00323         1.47606
H          1.16158        -9.08370         1.62440
O         -6.72622         5.23944        -3.06911
H         -6.55530         6.17870        -2.70177
O          2.24940         3.28070        -2.33119
O          3.64496        -5.44285        -2.28320
O          7.17455         2.33367         1.83634
O         -5.62930        -6.58200         2.69918
H         -5.89854        -5.82515         3.26138
O          3.35205         9.15288         2.65063
H          2.97567         8.24955         2.78891
O          7.75854        -2.93075        -0.96837
O         -7.54537         2.71949         2.02344
O          5.62178        -3.42830         2.05919
H          5.47357        -5.25043         2.53895
O         -0.86036         0.39245         0.62054
H         -1.70570         0.14285         1.06384
O         -0.07766        -6.77537        -2.43521
O          9.17943        -0.80788         2.49769
O         -7.17744        -8.16358        -0.16083
H         -6.75487        -8.55849        -0.95544
O         -7.42701        -0.61715         1.75078
O         -0.68860         7.80794         1.83798
H         -0.62522         8.13762         2.76765
O          6.15837        -5.48558        -1.70136
H          5.62131        -5.52366        -2.52371
O         -6.68430         4.31280        -1.96164
H         -5.93880         3.61924        -2.16572
O          2.81845        -3.57000         0.66612
O         -4.91599         7.21013         0.97150
H         -5.44732         6.45110         1.32899
O         -5.01959         2.23596        -1.93377
H         -5.12512         1.50284        -2.58162
O         -6.33534         7.86257        -2.36447
H         -5.54945         8.37217        -2.69442
O          0.70485         5.68129        -2.35448
O         -2.96825        -8.19091         2.24171
H         -3.76808        -7.67689         2.50241
O          4.62570         1.55306         1.54081
H          5.37163         1.99032         2.02494
O          0.99069        -9.96288        -2.15918
H          1.68508        -9.72690        -2.80801
O        -10.39417        -1.74928        -0.09613
H        -10.56436        -0.91656        -0.60119
O         -9.03323        -2.33543         3.25370
H         -8.23519        -1.76067         3.16846
H         12.20105        -1.16837         1.43415
H         12.25138         1.22657         1.08578
H         10.96178         3.54703         0.97044
H          9.68697         5.72306         0.95436
H          8.32293         7.81529         1.27421
H          7.03225        10.00147         1.07051
H          4.88071        11.10575         1.26488
H          2.37592        11.11347         0.80149
H         -0.05546        11.16996         0.51707
H         -2.59350        11.15544         0.29002
H         -5.13424        11.05916         0.25581
H         -7.21173         9.85403        -0.15911
H         -8.39573         7.79533        -0.12179
H         -9.62734         5.76174         0.36078
H        -10.93677         3.55657         0.48188
H        -11.62710         1.44743         2.25583
H        -11.48114        -0.95879         2.61775
H        -10.39641        -3.28358         2.02325
H         -8.91615        -5.30682         2.28535
H         -7.56423        -7.35481         2.36597
H         -6.62597        -9.84561         1.77381
H         -4.40328       -10.79746         1.89520
H         -1.91463       -10.73596         1.41591
H          0.18580       -11.18925        -0.07141
H          2.84326       -11.22160        -0.45600
H          5.24330       -11.16002        -0.22370
H          7.32608        -9.90234         0.13365
H          8.46496        -7.72253         0.52458
H          9.57799        -5.64914         0.99363
H         10.80014        -3.45641         1.82556
