         260
 CSIRO Nanostructure Databank - Neutral Graphene Oxide Data Set
C         30.30061        31.49821         0.01180
C         30.45191        32.72145         0.11084
C         30.59884        35.84398        -0.47254
C         30.50921        37.06576        -0.43066
C         30.58039        40.23295        -1.20552
C         30.64098        41.38179        -1.66075
C         32.70526        28.78807        -0.02222
C         31.51401        29.24118         0.02452
C         32.80178        31.52718         1.50932
C         30.99685        30.39257         0.56059
C         32.68003        32.99320         1.20462
C         31.49090        33.66555         0.51162
C         32.90734        35.81444         0.14477
C         31.74440        34.88075        -0.35078
C         32.80052        37.32138         0.14561
C         31.45453        38.12957         0.04213
C         32.88474        40.18606        -0.40562
C         31.71652        39.29221        -0.92470
C         33.00140        41.62032        -0.84752
C         31.46119        42.56429        -1.36251
C         33.21803        43.94622        -2.33218
C         32.08057        43.44453        -2.34883
C         35.19609        28.59319        -1.75273
C         35.19197        29.12421        -0.38026
C         33.98794        29.04332         0.38153
C         35.39646        31.48598         1.74795
C         34.00672        30.87565         1.58014
C         35.28473        33.00644         1.53304
C         33.99141        33.74411         1.26134
C         35.19083        35.91667         1.13096
C         34.07350        35.17608         0.82786
C         35.16184        37.40606         1.15988
C         33.93753        38.14558         0.69943
C         35.41298        40.03188        -0.20859
C         34.07670        39.50339         0.13689
C         35.54936        41.34347        -0.95817
C         34.34312        42.19965        -1.18971
C         35.75561        44.09677        -2.02000
C         34.47584        43.36450        -1.91796
C         35.79821        45.55402        -1.81122
C         37.55403        27.97104        -1.62075
C         36.25538        28.03503        -2.14793
C         37.70592        29.29928        -0.74772
C         36.41170        29.66680         0.03473
C         37.69658        31.77429         0.44341
C         36.62332        30.83128         1.00446
C         37.76814        33.08837         0.85155
C         36.56699        33.76911         1.37573
C         37.76123        36.04534         1.13902
C         36.49969        35.25937         1.38750
C         37.66158        37.41378         1.79646
C         36.45497        38.18551         1.26243
C         37.97219        40.07663         0.37701
C         36.60296        39.49751         0.54758
C         38.10596        41.37582        -0.36321
C         36.96736        41.91153        -1.26652
C         38.09107        44.32715        -0.83637
C         37.03556        43.46140        -1.47445
C         38.17873        45.87450        -1.18392
C         36.79696        46.24047        -1.61160
C         40.12677        25.51983        -2.59679
C         38.96524        26.02774        -2.61878
C         40.28977        27.52775        -0.62416
C         38.38631        26.86173        -1.60136
C         40.19828        28.83781        -0.11147
C         38.83463        29.33965         0.31576
C         40.16899        31.54380         1.26071
C         38.79261        30.82771         0.91393
C         40.20483        33.09037         1.09815
C         39.03076        33.79608         1.00342
C         40.27739        35.87476         1.82965
C         39.05073        35.29144         1.10053
C         40.27446        37.41732         1.84469
C         38.97838        38.20547         1.74235
C         40.27674        40.32304         1.28207
C         39.01056        39.56716         1.11780
C         40.33852        41.73853         0.84308
C         39.20370        42.30420         0.07363
C         40.11613        44.59795         0.64240
C         39.05676        43.78032        -0.04059
C         40.05110        46.08808         0.52366
C         38.66618        46.67777         0.02169
C         39.97967        48.79529         0.13549
C         38.99249        48.12712        -0.25674
C         42.73909        25.31802        -2.26532
C         41.42781        25.83474        -2.15399
C         42.55646        27.90866        -1.21183
C         41.41644        27.07290        -1.35521
C         42.60605        28.92929        -0.26890
C         41.38869        29.49555         0.19289
C         42.64448        31.67926         0.38267
C         41.34748        30.94836         0.48719
C         42.68883        33.15875         0.58799
C         41.47166        33.84375         1.06151
C         42.84117        35.90719         1.24873
C         41.55333        35.21255         1.29136
C         42.88648        37.37161         1.53206
C         41.60613        38.11556         1.71421
C         42.78997        40.27753         0.91101
C         41.57605        39.60669         1.53379
C         42.80153        41.77414         1.22961
C         41.49600        42.44658         0.93942
C         42.71651        44.69543         0.82018
C         41.44179        43.92825         0.91711
C         42.67801        46.16751         0.50564
C         41.35379        46.86252         0.35651
C         42.57708        48.89623         0.67157
C         41.28828        48.38376         0.43878
C         43.88925        25.50352        -1.77237
C         45.29852        27.18844        -0.37441
C         44.49186        26.75377        -1.40385
C         45.18647        28.57311         0.29943
C         43.89519        29.42173         0.28374
C         45.22912        31.60175         0.87552
C         43.91730        30.88991         0.62972
C         45.28342        33.05843         0.62982
C         44.02874        33.84895         0.61789
C         45.41205        35.88036         1.24365
C         44.03849        35.25700         1.03405
C         45.40893        37.41241         1.09866
C         44.11476        38.15661         1.18102
C         45.35045        40.27838         0.79626
C         44.09321        39.51617         1.07297
C         45.34046        41.77184         0.71376
C         44.06986        42.54442         0.98793
C         45.17080        44.73091         0.08686
C         43.90270        43.88893         0.27704
C         45.17890        46.24078         0.31448
C         43.99058        46.90031         0.99516
C         43.70479        48.34635         0.68546
C         47.58925        27.09140         0.52146
C         46.52967        26.63027         0.07688
C         47.81303        28.51287         0.83971
C         46.46825        29.26597         0.79966
C         47.81307        31.54881         0.64586
C         46.51588        30.79930         0.96248
C         47.74006        32.98909         0.18874
C         46.49513        33.74039         0.41349
C         47.58533        35.86229        -0.25262
C         46.47314        35.16443         0.38728
C         47.65935        37.36618        -0.21026
C         46.56230        38.12926         0.46341
C         47.72783        40.31816        -0.05994
C         46.39535        39.56379        -0.05037
C         47.76561        41.69586        -0.03262
C         46.46829        42.44257        -0.02593
C         47.78088        44.62398        -0.16535
C         46.44625        43.93750        -0.18541
C         47.55337        46.01669         0.06535
C         46.58510        46.68959         0.45447
C         50.39258        28.68491         0.27858
C         49.10356        29.23840         0.70494
C         50.17511        31.35936        -0.43406
C         49.09013        30.75976         0.44325
C         50.10981        32.87609        -0.61645
C         48.89351        33.63745        -0.19634
C         50.17504        35.84275        -0.49135
C         48.86707        35.08341        -0.55346
C         50.20673        37.35480        -0.73862
C         48.94506        38.11313        -0.41010
C         50.32279        40.33831        -0.18794
C         48.99783        39.56745        -0.00944
C         50.19495        41.76701        -0.55429
C         48.99946        42.42887        -0.28234
C         50.26577        44.42106        -0.48046
C         48.94287        43.91346        -0.28374
C         51.33442        29.26832        -0.27933
C         52.47662        31.44866        -1.14940
C         51.50698        30.64136        -0.61527
C         52.39048        32.73781        -1.16109
C         51.39887        33.60651        -0.82370
C         52.59493        35.91272        -0.86359
C         51.46952        35.03635        -0.51184
C         52.61982        37.14259        -0.75118
C         51.51637        38.11099        -0.87053
C         52.53581        40.43120        -1.15541
C         51.68758        39.51779        -0.33854
C         52.52022        41.65270        -1.30143
C         51.31395        42.52825        -1.38835
C         51.36304        43.92608        -0.78365
O         44.92185        45.71310        -0.99295
O         42.42867        37.74015         2.87759
O         39.64366        38.01549         3.02021
O         43.63107        29.89494         1.64512
O         45.86472        31.25870         2.16778
O         43.25770        33.73452        -0.64903
O         34.03296        29.46074         1.74983
O         32.64306        41.34775         0.52176
O         34.51647        33.58830         2.62654
O         39.30885        41.53107        -1.19855
O         50.71953        37.83907        -2.03176
O         38.50696        35.98072        -0.09862
O         46.20700        43.04442        -1.32909
O         45.60013        28.53903         1.69656
O         43.71468        27.79263        -1.98760
O         42.16834        46.45263        -0.81698
O         31.60143        30.77613         1.80669
O         41.79534        31.50887        -0.80853
O         49.71447        31.93229        -1.68871
O         36.27430        39.43349         1.98837
O         49.80010        39.97578         1.12824
O         33.27133        36.63001        -1.04379
O         34.17216        37.92344         2.12829
O         39.78413        45.45306         1.80020
O         40.90922        40.25686         2.62561
O         36.80820        43.71667        -2.91562
O         48.85499        31.46047         1.68647
O         47.93507        35.38475        -1.61209
O         48.59236        28.86901         1.99510
O         31.64626        33.77358         1.93017
O         47.97492        37.95661        -1.50723
O         39.16837        26.72396        -0.43405
O         50.85623        35.44472         0.74757
O         35.47901        40.05965        -1.67707
O         46.49757        38.00699         1.90615
O         42.15968        44.42823         2.11976
O         37.76872        30.56003         2.02095
O         43.57541        42.32817         2.32693
O         36.76922        34.51955         2.62471
O         45.86546        41.07773         1.89143
O         31.10457        38.65355         1.29679
H         30.88209        37.93036         1.91787
O         43.49679        43.48917        -1.06025
H         43.72009        44.22502        -1.67666
O         40.46188        31.26228         2.63846
H         39.69244        31.53767         3.18187
O         45.75776        35.58970         2.62167
H         46.31582        36.32758         2.95766
O         37.35541        37.14135         3.17171
H         37.13365        37.99149         3.60901
O         52.24188        39.35409         0.94974
H         52.37417        40.22938         1.36775
O         45.83367        39.53064        -1.37786
H         46.48285        39.07947        -1.96938
O         50.86452        42.60663        -2.70852
H         51.55406        43.01741        -3.26879
O         37.69352        46.54184         1.02284
H         38.04101        46.88253         1.87308
O         32.18055        38.77486        -2.16246
H         31.51246        38.15135        -2.51629
O         42.51953        40.20123        -0.52509
H         43.27665        40.57970        -1.02373
O         38.40769        28.42535         1.33567
H         38.99002        28.51566         2.11792
O         37.99885        30.32541        -1.70582
H         37.27807        30.34025        -2.37133
O         31.05569        43.24736        -0.24814
H         30.92400        42.61289         0.48980
O         44.14692        46.69306         2.38263
H         43.41606        47.11678         2.87790
O         39.10297        46.01175        -2.23869
H         38.72917        45.60073        -3.04666
O         40.15106        35.42763         3.19317
H         39.72589        36.15216         3.70965
O         32.13485        34.37096        -1.61333
H         32.42030        35.13129        -2.16841
O         37.23869        41.35537        -2.56346
H         38.17379        41.55735        -2.78804
O         35.69841        31.30885         3.14336
H         35.15456        31.94947         3.65354
