         404
 CSIRO Nanostructure Databank - Neutral Graphene Oxide Data Set
C          1.43388         2.83645         2.70382
C          1.31873         4.03188         1.96655
C          2.63880         2.16367         2.77573
C          2.42108         4.58178         1.30509
C          1.07168         6.28553         0.08259
C          1.00759         7.36325        -0.79551
C          2.32125         5.78664         0.49713
C          2.18364         8.03172        -1.14950
C          0.99597        10.99053        -1.24899
C          1.02266        12.21131        -0.59628
C          2.18704        10.26267        -1.41453
C          2.25806        12.78148        -0.21353
C          1.15982        14.76790         0.83870
C          1.23065        16.01478         1.42509
C          2.32752        14.10108         0.37577
C          2.47405        16.68115         1.56413
C          2.55506        17.96846         2.18724
C          3.79163         2.66952         2.11170
C          3.69013         3.91241         1.37372
C          5.03199         2.02163         2.23613
C          4.82029         4.46267         0.74552
C          3.51502         6.43795         0.06476
C          3.45196         7.67612        -0.64311
C          4.78087         5.77363         0.18920
C          4.66347         8.46332        -0.84833
C          3.43485        10.71102        -0.95508
C          3.46732        12.06671        -0.47499
C          4.65695         9.89017        -0.97724
C          4.71111        12.75727        -0.39497
C          3.58607        14.74526         0.50377
C          3.65675        16.05348         1.08400
C          4.77913        14.09289         0.04212
C          4.90937        16.72813         1.20163
C          3.75903        18.59953         2.33983
C          4.97161        18.00181         1.85460
C          6.17991         2.49212         1.55982
C          6.01574         3.57384         0.51869
C          7.41969         1.89041         1.70354
C          7.29055         4.31952         0.21602
C          5.93342         6.39465        -0.36526
C          5.91548         7.76422        -0.76031
C          7.16743         5.59793        -0.50032
C          7.16328         8.46837        -0.98279
C          5.90283        10.58201        -0.99344
C          5.88525        12.06244        -0.95516
C          7.14224         9.89847        -1.07022
C          7.20998        12.80803        -0.89712
C          6.04500        14.80869         0.07438
C          6.09898        16.14478         0.66499
C          7.20946        14.17231        -0.33017
C          7.31330        16.84141         0.80009
C          6.20769        18.64118         2.03868
C          7.40214        18.06658         1.54365
C          8.59995         2.44140         1.10691
C          8.52074         3.72248         0.40550
C          9.81941         1.80981         1.25796
C          9.75812         4.37425         0.00104
C          8.46522         6.32621        -0.86030
C          8.41138         7.78882        -0.97337
C          9.74505         5.67409        -0.53221
C          9.64981         8.47994        -1.09988
C          8.40617        10.62330        -1.09509
C          8.44241        12.01234        -0.93147
C          9.65346         9.90188        -1.16498
C          9.72807        12.66878        -0.66589
C          8.48244        14.90236        -0.36571
C          8.54269        16.31824         0.20407
C          9.75600        14.14261        -0.34637
C          9.84362        16.84953         0.61580
C          8.66282        18.68125         1.75407
C          9.88286        18.08221         1.33418
C         11.03833         2.40394         0.79429
C         11.00905         3.71176         0.20401
C         12.25255         1.74037         0.97197
C         12.23218         4.32997        -0.20352
C         10.96027         6.37236        -0.83895
C         10.88512         7.74467        -1.16766
C         12.22635         5.67680        -0.74943
C         12.08803         8.41250        -1.69710
C         10.89045        10.62353        -1.31885
C         10.94737        11.99350        -1.12925
C         12.10911         9.91335        -1.78363
C         12.18616        12.76707        -1.33126
C         11.00039        14.91672        -0.39139
C         11.04114        16.19423         0.20934
C         12.21429        14.29266        -0.89352
C         12.31497        16.81399         0.45908
C         11.13981        18.68871         1.56980
C         12.34487        18.08896         1.12559
C         13.47543         2.34295         0.57918
C         13.44435         3.63765        -0.03039
C         14.70215         1.68885         0.83341
C         14.72030         4.18614        -0.60989
C         13.44972         6.32028        -1.05722
C         13.40947         7.67313        -1.65948
C         14.70971         5.68822        -0.81513
C         14.69402         8.44963        -1.82473
C         13.44425        10.65707        -1.74094
C         13.47450        12.07701        -1.35997
C         14.71742         9.92061        -1.70031
C         14.69248        12.75887        -1.20849
C         13.50957        14.85550        -0.51775
C         13.52339        16.15088         0.11053
C         14.69925        14.14340        -0.76577
C         14.77236        16.78758         0.35869
C         13.59017        18.71517         1.34541
C         14.79877        18.09734         0.95357
C         15.94487         2.36924         0.67033
C         15.92444         3.67992         0.12908
C         17.17216         1.71756         0.97914
C         17.11452         4.50157         0.18129
C         15.93557         6.36830        -0.95615
C         15.99015         7.73375        -1.52583
C         17.16093         5.80176        -0.50153
C         17.22546         8.53569        -1.41131
C         15.91878        10.62207        -1.61319
C         15.94658        12.06481        -1.42763
C         17.18739         9.91666        -1.61223
C         17.17707        12.77605        -1.40760
C         15.96291        14.77841        -0.53312
C         15.99533        16.13395         0.01482
C         17.14224        14.12970        -0.93267
C         17.20610        16.80398         0.24636
C         16.03606        18.75552         1.13967
C         17.24547        18.13407         0.77523
C         18.42722         2.31347         0.67953
C         18.44149         3.77571         0.45159
C         19.61163         1.60466         0.58134
C         19.66578         4.44839         0.00994
C         18.39552         6.47826        -0.62554
C         18.44465         7.81351        -1.15380
C         19.64602         5.81907        -0.32626
C         19.68117         8.43581        -1.37595
C         18.40920        10.65762        -2.01596
C         18.44714        12.15550        -1.84626
C         19.69980         9.73284        -2.05261
C         19.60525        12.94245        -1.95964
C         18.36426        14.96186        -0.96177
C         18.49613        16.05926         0.07455
C         19.59542        14.37242        -1.54593
C         19.70924        16.94464        -0.11707
C         18.48324        18.83176         0.89707
C         19.70475        18.30663         0.41452
C         20.82737         2.23616        -0.04007
C         20.88066         3.73841         0.10005
C         22.12126         1.56951         0.29130
C         22.08826         4.43939         0.14506
C         20.89503         6.48922        -0.50019
C         20.92248         7.83186        -0.98073
C         22.11807         5.82357        -0.17904
C         22.18060         8.49925        -1.10132
C         21.03399        10.26813        -2.25576
C         20.94364        12.45609        -2.28314
C         22.20404         9.79695        -1.73261
C         22.12514        12.89684        -1.72150
C         20.89881        15.07215        -1.26455
C         20.86428        16.37879        -0.56163
C         22.18945        14.32002        -1.32796
C         22.15192        17.11276        -0.57552
C         20.88445        19.06445         0.44514
C         22.15631        18.57308        -0.06353
C         23.31397         2.26499         0.45762
C         23.29011         3.76211         0.75041
C         24.53922         1.58250         0.43019
C         24.58748         4.49507         0.45215
C         23.37136         6.52300        -0.26536
C         23.39708         7.86148        -0.72895
C         24.59892         5.82233         0.07395
C         24.66439         8.58762        -0.89703
C         23.47826        10.57824        -2.01595
C         23.34637        12.04821        -1.52828
C         24.69419         9.91700        -1.38516
C         24.62896        12.77961        -1.21350
C         23.45062        14.93291        -0.85918
C         23.41189        16.32518        -0.26134
C         24.61807        14.25616        -1.00302
C         24.64692        17.14867        -0.49702
C         23.45248        19.14151         0.28680
C         24.65502        18.51022        -0.11018
C         25.79755         2.22510         0.76383
C         25.81742         3.77681         0.83756
C         27.05935         1.53807         0.53461
C         27.14784         4.44836         0.65651
C         25.82321         6.70016         0.32689
C         25.87628         7.95236        -0.52247
C         27.14821         5.92504         0.36833
C         27.11735         8.58995        -0.74327
C         25.91915        10.63419        -1.38936
C         25.92816        12.09514        -1.45341
C         27.13219         9.93699        -1.17862
C         27.09805        12.81315        -1.49778
C         25.91308        14.95551        -0.81284
C         25.92586        16.43615        -0.61319
C         27.11216        14.30293        -1.42598
C         27.11858        17.26937        -1.06249
C         25.92911        19.18268         0.03520
C         27.13327        18.59090        -0.32094
C         28.28645         2.21359         0.37550
C         28.34516         3.64753         0.33152
C         29.48792         1.47766         0.21216
C         29.55176         4.30419        -0.00414
C         28.38421         6.50997        -0.20208
C         28.38213         7.88184        -0.56774
C         29.56919         5.74905        -0.23071
C         29.62155         8.54804        -0.73969
C         28.41444        10.62404        -1.39938
C         28.39461        12.11583        -1.62571
C         29.67272         9.96401        -0.98219
C         29.61905        12.88334        -1.21317
C         28.38969        15.09772        -1.48162
C         28.42353        16.50201        -0.99601
C         29.69104        14.34598        -1.54301
C         29.61294        17.15251        -0.73448
C         28.37931        19.21627        -0.08841
C         29.60360        18.55562        -0.31431
C         30.71505         2.12557        -0.03054
C         30.73050         3.54452        -0.19203
C         31.93004         1.37065        -0.05754
C         31.95558         4.19813        -0.77697
C         30.82237         6.41241        -0.45347
C         30.84339         7.83350        -0.59161
C         32.04042         5.67797        -0.45477
C         32.09146         8.52895        -0.64031
C         30.86975        10.66357        -0.89980
C         30.87027        12.14590        -0.86378
C         32.12366         9.97755        -0.73876
C         32.16136        12.87435        -0.81824
C         30.96586        15.05856        -1.23888
C         30.90383        16.48885        -0.84601
C         32.18584        14.28259        -0.86848
C         32.07931        17.15832        -0.58982
C         30.82503        19.21226        -0.07310
C         32.06995        18.55497        -0.19149
C         33.19487         1.98762        -0.12232
C         33.25079         3.42991        -0.50803
C         34.38075         1.28683         0.09927
C         34.51390         4.18670        -0.26903
C         33.26941         6.36783        -0.38201
C         33.27163         7.79322        -0.46543
C         34.52300         5.66195        -0.22509
C         34.56469         8.48495        -0.51065
C         33.32530        10.70271        -0.65813
C         33.36098        12.14688        -0.63978
C         34.60783         9.98594        -0.62573
C         34.59718        12.84976        -0.47501
C         33.39733        14.97686        -0.69664
C         33.37990        16.45576        -0.74017
C         34.61475        14.27381        -0.47781
C         34.64033        17.18163        -0.32798
C         33.26647        19.21475         0.15399
C         34.52081        18.56292         0.19500
C         35.64024         1.97749         0.43549
C         35.66935         3.49509         0.37581
C         36.94228         1.31271         0.39951
C         36.96657         4.19917         0.36967
C         35.73321         6.31229         0.02803
C         35.72233         7.78552         0.11346
C         36.96818         5.62713         0.26506
C         37.00140         8.54108         0.27556
C         35.85077        10.70765        -0.27152
C         35.83483        12.13103        -0.28224
C         37.03817         9.99223        -0.01748
C         37.05108        12.84220        -0.13164
C         35.84195        14.98543        -0.16979
C         35.83138        16.38522         0.03182
C         37.06332        14.25895         0.01973
C         36.95500        17.04794         0.58104
C         35.64893        19.16703         0.74027
C         36.87694        18.45612         0.91497
C         38.12491         2.02032         0.53469
C         38.13023         3.46567         0.59690
C         39.40164         1.32465         0.40963
C         39.39113         4.19405         0.80203
C         38.21075         6.35855         0.37587
C         38.25757         7.77406         0.29755
C         39.43627         5.64235         0.54777
C         39.48791         8.47716         0.34130
C         38.28871        10.64493         0.05189
C         38.30198        12.08877        -0.15593
C         39.50063         9.92458         0.29250
C         39.62766        12.85967         0.30926
C         38.24064        14.93957         0.48784
C         38.15318        16.32426         0.84213
C         39.45401        14.23814         0.76033
C         39.26364        16.98150         1.46144
C         37.98383        19.09020         1.47985
C         39.17747        18.37720         1.77055
C         40.59688         1.95899         0.42085
C         40.70709         3.39846         0.72591
C         41.90203         4.16811         0.36986
C         40.67722         6.30809         0.51728
C         40.70890         7.74842         0.47001
C         41.89214         5.52851         0.38924
C         41.91797         8.48193         0.63073
C         40.71615        10.61607         0.57899
C         40.71291        12.03654         0.82456
C         41.91122         9.85556         0.73439
C         41.69090        12.67951         1.60405
C         40.51182        14.83792         1.49167
C         40.43948        16.25479         1.81343
C         41.61824        14.04104         1.88071
C         41.49930        16.93615         2.44097
C         40.27289        19.02375         2.39176
C         41.41571        18.30549         2.71769
O         12.60268         7.73120        -2.88392
O         39.29206        12.60066        -1.07982
O         28.53795        11.22654        -2.75989
O         15.47824         7.86181        -2.90766
O         29.93287        12.65489         0.20132
O         34.83980         9.10275        -1.80992
O         18.73721        15.28229        -2.33328
O         26.16271        15.49816         0.53724
O          9.81605        13.15490         0.77197
O         35.40152         2.84302         1.64617
O         17.76473         4.51642         1.50781
O          2.08677         9.04881        -2.11089
O         25.72423         3.00605         2.05200
O         12.67337        10.43570        -3.00825
O         21.06404        11.34924        -3.13822
O         21.71425        15.16433        -2.48158
O         34.26406        17.04998        -1.74720
O         22.21247        18.16092        -1.51582
O         27.54369        14.93062        -2.69139
O         30.55182        14.75322        -2.63806
O         27.40505         5.42683         1.73604
O         40.11925         3.77928         2.00834
O         18.88308        10.00561        -3.23319
O         36.10131         8.27616         1.44294
O          7.69068         5.59116        -1.87162
O          8.47552        16.04680        -1.25442
O         34.21047         3.63668        -1.61522
O         23.82146        12.14016        -0.14474
O          6.42899        12.71030        -2.15181
O         12.08148        13.86116        -2.28685
O         14.81994         3.61724        -1.97805
H         14.09585         4.01124        -2.51118
O         25.58899         7.21731         1.66935
H         26.02269         6.58679         2.29341
O         23.11082         3.88241         2.19677
H         23.92645         3.50718         2.60832
O         31.74135         4.15369        -2.22512
H         32.63948         4.17041        -2.63326
O         20.64317         2.03430        -1.50667
H         21.41269         2.44145        -1.95934
O         26.89833        17.59769        -2.46212
H         27.07024        16.77773        -2.98574
O         23.72041        10.59586        -3.43910
H         22.88911        10.88679        -3.87927
O          5.69359         2.85742        -0.73207
H          6.47525         2.31274        -0.96660
O         18.73615        15.33805         1.33397
H         18.73527        15.99763         2.06000
O         23.35285        16.08262         1.19069
H         24.23460        15.71736         1.44376
H          0.54970         2.43726         3.22012
H          0.34218         4.53338         1.92712
H          2.72025         1.22726         3.34589
H          0.14489         5.77541         0.37615
H          0.04905         7.69012        -1.21813
H          0.05469        10.57338        -1.62892
H          0.08398        12.75958        -0.44563
H          0.18104        14.27657         0.75806
H          0.31708        16.50216         1.79490
H          1.62983        18.43678         2.55321
H          5.12203         1.15080         2.90332
H          3.81637        19.58115         2.83198
H          7.52358         0.99913         2.34118
H          6.25013        19.59829         2.57892
H          9.86963         0.83952         1.77390
H          8.70048        19.64113         2.28985
H         12.26716         0.74685         1.44328
H         11.18403        19.65234         2.09770
H         14.69350         0.67672         1.26294
H         13.62245        19.70070         1.83240
H         17.14190         0.65827         1.27479
H         16.05069        19.77096         1.56154
H         19.62507         0.52384         0.78753
H         18.46616        19.85999         1.28735
H         22.15875         0.47228         0.20188
H         20.88574        20.01247         1.00410
H         24.56393         0.53566         0.09238
H         23.49229        20.10617         0.81400
H         27.02753         0.45266         0.36141
H         25.93559        20.18983         0.47966
H         29.46121         0.38215         0.29950
H         28.39608        20.23271         0.33440
H         31.87579         0.28821         0.13276
H         30.80870        20.26637         0.24199
H         34.33623         0.19621         0.24451
H         33.20903        20.25962         0.49516
H         36.97610         0.23084         0.20119
H         35.58796        20.20673         1.09573
H         39.36365         0.24114         0.22044
H         37.92339        20.15810         1.73716
H         41.52212         1.39958         0.21541
H         42.81622         3.62429         0.08882
H         42.82745         6.06032         0.16485
H         42.87168         7.94800         0.73756
H         42.86046        10.38100         0.90803
H         42.53569        12.10243         2.00505
H         42.42834        14.49062         2.46956
H         42.41853        16.40131         2.71409
H         40.20559        20.09688         2.62035
H         42.26313        18.81174         3.20050
