         324
 CSIRO Nanostructure Databank - Neutral Graphene Oxide Data Set
C          1.16495         2.00287         0.16521
C          1.15367         3.39617         0.01281
C          2.35373         1.29310         0.13478
C          2.35109         4.12046        -0.17105
C          1.15891         6.31317        -0.22194
C          1.16014         7.69349        -0.32012
C          2.36007         5.56965        -0.29080
C          2.35767         8.41451        -0.51081
C          1.11899        10.69575        -0.42003
C          1.19742        12.05700        -0.43910
C          2.31664         9.88904        -0.67702
C          2.43623        12.79532        -0.36643
C          1.49421        14.88304        -1.50482
C          1.58128        16.24567        -1.74693
C          2.36031        14.26190        -0.55779
C          2.62716        17.04607        -1.20113
C          2.78235        18.43152        -1.48927
C          3.59633         1.96107        -0.07725
C          3.58349         3.40242        -0.22824
C          4.78863         1.22251        -0.05842
C          4.80262         4.12018        -0.35866
C          3.59055         6.27533        -0.46163
C          3.58790         7.71457        -0.57862
C          4.81175         5.52447        -0.46590
C          4.83622         8.46461        -0.59386
C          3.65148        10.65487        -0.52845
C          3.64014        12.09214        -0.16516
C          4.85709         9.82718        -0.35309
C          4.93355        12.68713         0.15940
C          3.24370        15.11530         0.09478
C          3.57512        16.43124        -0.32299
C          5.05350        14.06243         0.60993
C          4.80508        17.07350         0.02861
C          3.86493        19.11551        -0.98601
C          4.92781        18.44188        -0.30298
C          6.07764         1.81340        -0.37185
C          6.06559         3.36582        -0.52580
C          7.34175         1.17276        -0.02220
C          7.33874         4.03899        -0.17717
C          6.08771         6.21613        -0.74590
C          6.11400         7.74009        -0.81011
C          7.36246         5.58097        -0.32032
C          7.40602         8.39642        -0.61633
C          6.12268        10.53532        -0.11387
C          6.12897        12.00531        -0.03496
C          7.42074         9.82756        -0.29811
C          7.41060        12.68311         0.02165
C          6.14289        14.85842         0.42504
C          6.04987        16.37777         0.65226
C          7.46535        14.11650         0.50811
C          7.29562        17.02033        -0.00851
C          6.13651        19.18123        -0.03231
C          7.34910        18.52905         0.14068
C          8.56741         1.87010        -0.04094
C          8.57861         3.29370        -0.19277
C          9.80996         1.19519         0.19192
C          9.84316         4.03804        -0.16039
C          8.62664         6.28631        -0.46391
C          8.63166         7.70221        -0.55436
C          9.87783         5.54638        -0.27514
C          9.88599         8.43123        -0.39028
C          8.61131        10.60849        -0.79639
C          8.57914        12.04508        -0.31935
C          9.90563         9.86899        -0.48866
C          9.83508        12.80069        -0.50293
C          8.67002        14.88819         0.05483
C          8.60255        16.33788         0.35369
C          9.86257        14.24354        -0.18425
C          9.86736        17.11502         0.28543
C          8.58099        19.23239         0.20513
C          9.84101        18.59912         0.19152
C         11.01065         1.88647         0.50115
C         10.95836         3.37438         0.58154
C         12.17910         1.22929         0.82443
C         12.15725         4.17901         0.96854
C         11.08724         6.29637         0.15335
C         11.08215         7.72628        -0.04637
C         12.22708         5.63170         0.60141
C         12.30810         8.42897         0.10048
C         11.09447        10.57507        -0.43907
C         11.14726        12.05128        -0.58887
C         12.35532         9.84923        -0.28264
C         12.39018        12.80584        -0.26797
C         11.12538        14.93281        -0.22451
C         11.08506        16.41127        -0.20976
C         12.35088        14.25396        -0.25256
C         12.35687        17.19078        -0.23174
C         11.06455        19.28846         0.22071
C         12.33040        18.62806         0.14754
C         13.46134         1.87614         1.28158
C         13.40600         3.43901         1.40204
C         14.59347         1.41645         0.35036
C         14.67785         4.26921         1.50066
C         13.46682         6.35026         0.75429
C         13.50043         7.76159         0.46990
C         14.66827         5.69401         1.09024
C         14.72313         8.48257         0.66415
C         13.61098        10.65377        -0.02630
C         13.56668        12.13465         0.02444
C         14.69785         9.95737         0.70483
C         14.80157        12.84772         0.25468
C         13.60794        14.97600        -0.13201
C         13.62299        16.43923        -0.14125
C         14.78956        14.27597         0.10903
C         14.78992        17.15633        -0.04915
C         13.54196        19.28721         0.28809
C         14.80436        18.60619         0.10533
C         15.89678         1.56453         0.77504
C         15.99244         3.61103         1.51873
C         17.13887         1.27987         0.16089
C         17.16214         4.20606         1.07574
C         15.91520         6.37930         1.03423
C         15.92854         7.81265         0.92176
C         17.15043         5.66282         1.01856
C         17.18145         8.53772         1.01243
C         15.98345        10.74642         0.95474
C         16.00644        12.18080         0.57002
C         17.22463         9.95679         0.99773
C         17.26947        12.87598         0.53998
C         16.04942        15.03011         0.48862
C         16.07206        16.41705        -0.11634
C         17.31938        14.23717         0.28613
C         17.34273        17.17209        -0.23570
C         15.99914        19.29522         0.14115
C         17.32424        18.70665        -0.28810
C         18.33780         2.01911         0.43872
C         18.36320         3.42193         0.82276
C         19.56559         1.39147         0.12590
C         19.60290         4.11349         0.77849
C         18.36430         6.37026         0.94866
C         18.39969         7.78709         1.02335
C         19.60388         5.60119         0.73659
C         19.66425         8.49074         1.08357
C         18.46928        10.65161         1.01144
C         18.46729        12.17431         1.17985
C         19.65385         9.93141         1.12930
C         19.79449        12.78654         0.76115
C         18.61874        14.97832         0.30125
C         18.63023        16.48168         0.12109
C         19.84169        14.12030         0.16376
C         19.83877        17.33987        -0.09516
C         18.51313        19.33065         0.40756
C         19.75950        18.72250         0.35393
C         20.81432         2.04369         0.25285
C         20.81898         3.43509         0.58993
C         22.03995         1.38249        -0.02164
C         22.12440         4.10084         0.80808
C         20.89742         6.34735         0.82296
C         20.87635         7.79104         1.08693
C         22.17002         5.59076         1.03806
C         22.15686         8.50064         0.75253
C         20.92871        10.65230         1.36528
C         20.94394        12.08169         0.97876
C         22.22853         9.89941         1.29912
C         22.23966        12.57282         0.47649
C         20.98965        14.51516        -0.47259
C         21.04156        16.86248        -0.54025
C         22.27674        13.78683        -0.37710
C         22.28582        17.53852        -0.29231
C         20.98909        19.43818         0.57045
C         22.22916        18.85992         0.28265
C         23.29069         2.06033        -0.03821
C         23.35940         3.44284         0.34682
C         24.47011         1.40745        -0.46139
C         24.55956         4.16597         0.22720
C         23.43996         6.31514         0.82159
C         23.44661         7.72754         0.91349
C         24.60830         5.59420         0.49475
C         24.65725         8.44130         0.84807
C         23.53047        10.59192         1.12195
C         23.49706        12.07092         1.10572
C         24.68973         9.90201         0.93586
C         24.75188        12.86451         0.93258
C         23.55915        14.55452        -0.41671
C         23.52497        16.89827        -0.42567
C         24.68161        14.19564         0.25095
C         24.75838        17.42890         0.05764
C         23.48681        19.54923         0.32494
C         24.70654        18.90288         0.15642
C         25.68529         2.11477        -0.60797
C         25.73078         3.51243        -0.28587
C         26.85317         1.49202        -1.12768
C         26.90989         4.25350        -0.57469
C         25.79790         6.32984         0.21341
C         25.83671         7.73590         0.46649
C         26.92928         5.66986        -0.36382
C         26.93498         8.50005        -0.03158
C         26.01904        10.62971         1.10726
C         26.02013        12.12391         0.77806
C         27.19225         9.89656         0.43032
C         27.19116        12.83258         0.53644
C         25.86616        15.07807         0.47927
C         25.89560        16.56390         0.29261
C         27.21133        14.32725         0.68300
C         27.14565        17.08929         0.70857
C         25.86338        19.70743        -0.24077
C         27.11756        19.27141         0.07516
C         28.00914         2.22536        -1.41837
C         28.03920         3.64295        -1.18580
C         29.17506         1.58696        -1.97091
C         29.19508         4.41596        -1.54998
C         27.99030         6.43731        -0.90173
C         27.77862         7.83926        -0.91418
C         29.21209         5.84515        -1.41002
C         29.62161         8.92054        -1.28538
C         28.42214        10.68930         0.06698
C         28.42716        12.15667         0.27710
C         29.63648        10.14028        -0.60505
C         29.67009        12.80948         0.39320
C         28.52490        15.05153         0.60905
C         28.42578        16.46742         0.65760
C         29.72157        14.23282         0.67935
C         29.56872        17.54776         0.63679
C         28.34810        19.42710        -0.64304
C         29.42718        18.58252        -0.48906
C         30.29306         2.31129        -2.26944
C         30.33628         3.73456        -2.07002
C         31.49483         4.47422        -2.37602
C         30.43706         6.56751        -1.65022
C         30.67346         7.99173        -1.30243
C         31.54602         5.84158        -2.13442
C         31.90834         8.51827        -0.84569
C         30.88035        10.66497        -0.20160
C         30.89628        12.02153         0.35181
C         32.01737         9.83753        -0.39634
C         32.07834        12.57103         0.83651
C         30.97451        14.69107         1.18994
C         30.90270        16.87282         0.57765
C         32.10248        13.88971         1.31549
C         31.87203        17.05006        -0.35326
C         30.49642        18.72543        -1.45274
C         31.64901        17.99878        -1.41278
O         21.06686        15.66188        -1.25390
O         28.33750         9.92682         1.37306
O         26.40752        14.76653         1.81638
O          7.20993         4.92523         0.99180
O         13.36540        10.11754        -1.35890
O          9.32222        16.67320         1.58930
O         18.24787        12.40173         2.55451
O         31.10042        16.00345         1.66160
O         11.58260        16.96940        -1.47959
O         22.32718        12.46050        -1.01159
O         11.07554         3.90381         1.94222
O          6.12037         2.53089        -1.68622
O          6.11063         6.88358        -2.02916
O         23.54772        15.71924        -1.18480
O         16.04159         2.31434         1.99328
O          3.91933        14.62561         1.21313
O         13.85075         3.93634         2.68927
O         15.00097        10.48334         2.02417
O          6.93576        10.05284         1.06459
O         20.31025         6.05095        -0.51361
O         18.65980        15.90521         1.47108
O         10.21625         4.65104        -1.44439
O         28.42000         8.57991        -1.90738
O         27.15264        18.39689         1.16924
O          3.04790        10.37605        -1.84101
O         21.61475        10.19074         2.58639
O         10.46903        12.52035        -1.81557
O         22.19144         4.69043         2.18231
O         16.73131        16.55730        -1.42941
O         24.05031        12.79356         2.23726
O          6.08808        16.64303         2.06658
H          5.32127        16.18505         2.47295
O          7.68995        14.00488         1.96532
H          7.76365        14.92050         2.31983
O         17.46415        19.07933        -1.69822
H         17.02223        18.36219        -2.21201
O          7.12939        16.74705        -1.42961
H          7.83638        17.21231        -1.92416
O         26.22644        10.58161         2.54251
H         27.20321        10.57165         2.68727
O          8.47691        10.64187        -2.24386
H          9.20981        11.21398        -2.57951
O         13.71066         1.34521         2.59617
H         14.07182         2.08029         3.14615
O         15.94855        15.24502         1.93494
H         16.46723        14.54537         2.39176
O         29.54764        18.25810         1.89438
H         29.80350        17.61817         2.59286
O         22.05698         8.69989        -0.70973
H         21.72886         7.86319        -1.10793
H          0.21483         1.47155         0.31531
H          0.18747         3.91533         0.05123
H          2.35102         0.20065         0.25597
H          0.19686         5.80187        -0.09081
H          0.20241         8.22837        -0.26859
H          0.14348        10.20917        -0.28164
H          0.26707        12.64057        -0.37242
H          0.74154        14.28012        -2.03215
H          0.86667        16.71829        -2.43602
H          2.03392        18.94584        -2.10872
H          4.75846         0.17254         0.26961
H          3.98176        20.18855        -1.19813
H          7.32455         0.12051         0.29532
H          6.10529        20.28053        -0.08797
H          9.81616         0.09541         0.21975
H          8.54490        20.33327         0.21508
H         12.19176         0.12900         0.80583
H         11.05270        20.38652         0.30176
H         14.36013         0.84591        -0.55909
H         13.55566        20.36522         0.50950
H         17.21074         0.43322        -0.53749
H         15.97301        20.38607         0.29224
H         19.54990         0.34303        -0.20641
H         18.43593        20.38582         0.71237
H         22.01486         0.31781        -0.29910
H         20.94108        20.48147         0.91565
H         24.42757         0.34383        -0.73957
H         23.48397        20.64277         0.44053
H         26.83206         0.41257        -1.34003
H         25.69722        20.53970        -0.94025
H         29.15111         0.50079        -2.14091
H         28.36102        20.14177        -1.48105
H         31.18422         1.81433        -2.67997
H         32.37596         3.95603        -2.78078
H         32.48120         6.38025        -2.34301
H         32.80584         7.88313        -0.83472
H         33.01061        10.19963        -0.09570
H         32.99825        11.97261         0.86834
H         33.01512        14.31117         1.75442
H         32.82082        16.50198        -0.28832
H         30.35266        19.46870        -2.25090
H         32.42894        18.14823        -2.17112
