         320
 CSIRO Nanostructure Databank - Neutral Graphene Oxide Data Set
C         30.56703        31.70800         0.05637
C         30.39937        32.87335         0.41425
C         30.51722        35.95802        -0.66110
C         30.30492        37.18291        -0.87832
C         30.16263        40.36143        -0.08958
C         30.33584        41.59964        -0.08435
C         32.62688        28.86450         0.33635
C         31.65500        29.41923        -0.17031
C         32.89093        31.41968        -0.49357
C         31.46845        30.78437        -0.72645
C         32.97848        32.84228        -0.90875
C         30.99637        34.07625         0.92220
C         32.73147        35.86591         0.25321
C         31.37952        35.12225         0.07243
C         32.68977        37.31884        -0.33983
C         31.32775        38.05209        -0.04779
C         32.62515        40.30458        -0.04477
C         31.37361        39.49385        -0.57637
C         32.65176        41.78154        -0.50118
C         31.33232        42.53132        -0.48104
C         31.01290        44.96612        -1.41298
C         31.16597        43.79717        -0.96576
C         35.36557        27.26668         0.91383
C         35.17050        28.65298         0.36296
C         33.93812        29.44469         0.78484
C         35.30802        31.49335        -0.00692
C         33.98831        30.83804         0.08125
C         35.34697        32.98008        -0.42268
C         33.99764        33.62262        -0.06488
C         35.22848        35.83784         0.18923
C         34.00539        35.12869        -0.36381
C         35.28150        37.31584        -0.09552
C         33.90672        38.09092         0.20999
C         35.18160        40.25423         0.12136
C         33.94876        39.54838        -0.38643
C         35.19553        41.71113         0.13940
C         33.94817        42.49636        -0.22014
C         35.20711        44.59807         0.10316
C         34.02446        43.92109         0.22058
C         35.58231        45.86052         0.64307
C         37.69814        27.09568         0.14068
C         36.44041        26.66524         0.85242
C         37.77846        28.60817         0.45042
C         36.49884        29.40485         0.72472
C         37.78377        31.56195        -0.10453
C         36.47694        30.79930         0.12731
C         37.63476        32.87703         0.71312
C         36.49672        33.72991         0.21460
C         37.71659        35.86724         0.92235
C         36.35138        35.08596         0.86591
C         37.74577        37.27914         0.46959
C         36.44659        38.04777         0.60475
C         37.75370        40.23462        -0.02457
C         36.45804        39.49757         0.08844
C         37.79939        41.72542        -0.10313
C         36.50814        42.46486        -0.02829
C         37.78965        44.59672        -0.23633
C         36.44746        43.91179        -0.53906
C         37.92672        45.82732         0.34745
C         36.66652        46.48072         0.65957
C         40.24236        24.43110        -0.49459
C         39.20861        25.06752        -0.27235
C         40.26176        27.25191        -0.04818
C         38.98767        26.36864         0.44980
C         40.32077        28.54834         0.80694
C         38.96111        29.25265         0.59514
C         40.15999        31.34586         1.08377
C         39.09808        30.69142         0.15340
C         39.95468        32.80778         1.30469
C         38.93799        33.61051         0.92577
C         40.36067        35.79599         0.64357
C         39.02684        35.10429         1.09955
C         40.29401        37.32359         0.85681
C         38.97301        38.04856         0.69143
C         40.26960        40.22840        -0.08011
C         39.00525        39.53857         0.44150
C         40.27312        41.73807         0.29721
C         38.98063        42.39847        -0.15613
C         40.31369        44.54446        -0.55261
C         39.00150        43.80818        -0.71595
C         40.18107        46.02905        -0.73999
C         39.28592        46.44072         0.55842
C         40.23050        48.70195         0.19870
C         39.35556        47.93051         0.58918
C         42.90155        24.52793        -0.73659
C         41.58690        24.95903        -0.24990
C         42.78030        27.33270        -0.39475
C         41.56494        26.46654         0.01184
C         42.77736        28.74011         0.24013
C         41.60979        29.39926         0.48531
C         42.89385        31.51563         1.34468
C         41.62330        30.96198         0.56403
C         43.04099        33.05356         1.21313
C         41.95399        33.84349         1.43160
C         42.90929        35.93418         0.80142
C         41.75798        35.24231         1.06786
C         42.88381        37.39440         0.68465
C         41.56181        38.11137         0.67085
C         42.74101        40.18541        -0.07043
C         41.58449        39.54113         0.24448
C         42.68895        41.61718        -0.59699
C         41.50905        42.45347        -0.19526
C         42.84630        44.52450        -0.88692
C         41.52292        43.84338        -0.44963
C         42.80359        46.07846        -0.77999
C         41.49187        46.79082        -0.86556
C         42.72059        48.88746        -0.30878
C         41.34218        48.63697        -0.74505
C         43.95106        25.16333        -0.56436
C         45.38631        27.33823        -0.17549
C         44.11502        26.56003        -0.16129
C         45.35776        28.82120        -0.21006
C         44.01711        29.56127        -0.10666
C         45.45515        31.61074         0.43689
C         44.16115        30.83216         0.74377
C         45.47357        33.05829         0.47092
C         44.35577        33.83070         1.09264
C         45.44515        35.91843         0.18834
C         44.13741        35.14956         0.30532
C         45.50587        37.40397         0.52426
C         44.15152        38.12883         0.45478
C         45.28716        40.26691         0.00299
C         44.04661        39.41723        -0.33261
C         45.11696        41.59626        -0.67602
C         44.00972        42.35560        -0.53184
C         45.47388        44.68019        -0.49632
C         44.06796        43.85056        -0.20626
C         45.26888        46.09356         0.13980
C         43.99365        46.80004        -0.12957
C         43.76356        48.25282        -0.16903
C         47.63491        27.45096        -1.17621
C         46.66268        26.85533        -0.68541
C         47.57896        28.92929        -1.44143
C         46.49601        29.54569        -0.56492
C         47.84941        31.63096        -0.10008
C         46.61232        30.92160        -0.20473
C         47.77066        33.03867         0.00288
C         46.51743        33.76336        -0.37059
C         47.90707        36.00032        -0.06061
C         46.60499        35.26746        -0.12364
C         47.90198        37.36675         0.06886
C         46.60715        38.05791        -0.32642
C         47.96874        40.33781        -0.04660
C         46.65728        39.59388        -0.25411
C         47.94105        41.80697         0.47416
C         47.02383        42.72595        -0.29956
C         48.12202        44.81837         0.25584
C         46.79317        44.02480         0.01214
C         47.63402        46.12847         0.79073
C         46.58259        46.68130         0.44232
C         50.78134        29.20496        -0.17286
C         49.46140        29.65322         0.24377
C         50.29764        31.79799        -0.67043
C         49.18561        30.97306        -0.12083
C         49.79950        33.12143        -1.19582
C         49.09807        33.74989         0.08756
C         50.13757        35.93947         1.02630
C         49.21200        35.28459         0.07167
C         50.18581        37.32288         1.14823
C         48.97255        38.16137         0.78965
C         50.42372        40.22360         0.86990
C         49.29724        39.51795         0.09724
C         50.30554        41.65802         1.38015
C         49.33583        42.47692         0.50820
C         50.35990        44.35031         1.47571
C         49.16908        43.98976         0.96271
C         51.59778        29.79902        -0.90659
C         52.26418        32.17089        -2.08896
C         51.68069        31.23355        -1.11943
C         51.98042        33.37126        -2.23166
C         50.78425        34.11388        -1.81604
C         51.37268        36.61775        -1.24459
C         50.48273        35.51039        -1.42123
C         51.72712        37.46432        -0.41540
C         51.57718        37.97494         1.00957
C         52.59424        40.23312         1.76896
C         51.52534        39.46356         1.17408
C         52.69693        41.47203         1.89359
C         51.68462        42.44213         1.66255
C         51.49153        43.78176         1.80473
O         44.28008        46.23627         1.17319
O         32.31832        33.29931        -1.82870
O         35.92030        42.29938         1.29605
O         40.91313        33.30636         2.17293
O         46.20659        42.21077        -1.28778
O         51.51453        31.91010         0.14525
O         47.41124        40.14295        -1.37460
O         37.14481        39.64231        -1.22104
O         41.69890        25.52269         1.10467
O         40.98037        37.83814         2.01084
O         42.29541        46.62172        -2.05728
O         50.02965        35.04880        -2.67049
O         48.17969        29.53532        -2.28268
O         38.39533        35.68764         2.25617
O         42.64682        27.60986        -1.76466
O         43.60748        38.13164         1.79177
O         44.81237        26.79905         1.06231
O         38.86214        39.10137         1.80665
O         33.50998        42.19829        -1.58216
O         45.19848        30.84048         1.72415
O         49.76366        41.54513         2.72149
H         50.31690        40.90571         3.22027
O         32.77818        37.24706        -1.75923
H         32.89092        38.16183        -2.12270
O         39.06630        26.11984         1.82039
H         39.94957        25.72834         2.01941
O         34.04746        39.54187        -1.82303
H         34.91534        39.12755        -2.06240
O         40.00391        30.76589         2.39985
H         40.64084        31.23068         2.99062
O         37.82097        31.99730        -1.47926
H         38.43521        31.38973        -1.96504
O         35.93459        34.89507         2.29974
H         36.11027        35.74419         2.76635
O         41.85673        31.55004        -0.71531
H         41.22581        31.16823        -1.37083
O         32.48417        40.45472         1.37230
H         32.61490        39.56906         1.80038
O         31.01929        38.03117         1.32272
H         30.27446        38.65607         1.47420
O         45.12881        40.49196         1.42130
H         45.91646        40.98346         1.77271
O         33.00672        35.90390         1.64349
H         32.32913        36.47057         2.07610
O         40.06496        27.69020        -1.40022
H         40.96892        27.64130        -1.85534
O         48.62504        28.89252         0.96318
H         48.93405        27.96524         1.00511
O         42.79640        31.11957         2.71730
H         43.70806        31.01788         3.07188
O         45.94891        37.45113         1.90284
H         45.13188        37.57146         2.45449
O         44.71793        34.21870         2.45216
H         44.78723        33.40349         2.99221
O         48.64642        45.04340        -1.06609
H         47.99011        45.56862        -1.57511
O         45.58261        44.91293        -1.90344
H         45.69840        44.03875        -2.33920
O         40.11843        40.12559        -1.51121
H         40.87462        40.59200        -1.95032
O         43.71223        34.80663        -1.04127
H         44.48412        34.43718        -1.53840
O         43.81814        29.95199        -1.48516
H         43.38377        29.15188        -1.92325
O         37.44676        26.98442        -1.24651
H         36.59304        27.44185        -1.44696
O         49.74239        33.24261         1.28203
H         49.15104        33.41588         2.04372
O         33.71618        38.22364         1.62174
H         34.57988        38.42652         2.06236
O         46.18667        33.56429        -1.78974
H         46.92474        33.05353        -2.20265
O         39.38119        46.31255        -1.90139
H         39.38627        47.28409        -2.04836
O         38.89161        43.62386        -2.15873
H         38.89231        44.52326        -2.56079
O         40.35817        35.57718        -0.79440
H         41.27713        35.45105        -1.12019
O         31.33159        39.50634        -1.96642
H         30.71862        38.78762        -2.25498
O         52.58344        37.48687         1.84990
H         52.57127        36.50385         1.81696
O         35.55102        37.44538        -1.51354
H         34.94372        36.79634        -1.97017
O         31.15190        30.81188        -2.08301
H         31.26906        31.74058        -2.40053
O         49.78427        39.24364        -1.21575
H         49.93790        40.09674        -1.67450
O         46.33304        37.72119        -1.69676
H         46.90074        38.29493        -2.25711
O         35.44649        33.02725        -1.87565
H         36.34944        32.67669        -2.10514
O         32.95200        44.45062         0.83613
H         33.12903        45.38615         1.06593
O         49.85351        42.47789        -0.82604
H         49.54910        43.30022        -1.28053
O         33.91922        29.65109         2.18864
H         33.07127        30.07231         2.43739
O         41.01864        49.08122        -2.00439
H         41.79819        48.99619        -2.59099
O         51.26284        35.25485         1.38385
H         51.10618        34.27680         1.31831
O         34.04694        35.26782        -1.79641
H         34.56228        34.50208        -2.16284
O         44.01940        39.08198        -1.72786
H         43.65091        39.85146        -2.22349
O         36.24993        43.83717        -1.95362
H         36.21591        44.74502        -2.31831
O         40.45012        28.17062         2.17742
H         40.21096        28.96041         2.71904
O         35.12349        28.53730        -1.06566
H         34.25418        28.15080        -1.31228
O         33.75126        33.34788         1.32091
H         34.34033        33.93609         1.85928
O         43.82041        43.84405         1.20330
H         44.49356        43.28923         1.65010
O         48.36566        38.59547         2.05159
H         47.55092        38.05195         2.22464
O         48.82876        32.84356        -2.22410
H         48.88197        33.57536        -2.88399
O         40.28660        41.79089         1.74778
H         40.47140        42.71153         2.02871
O         42.49447        41.44994        -2.07933
H         42.57285        42.36475        -2.46470
O         39.64906        30.43839        -1.18711
H         39.72100        29.44638        -1.34521
O         36.57640        29.59311         2.15174
H         35.69091        29.84931         2.49981
O         42.97422        44.20056        -2.29100
H         42.54086        44.93422        -2.79387
O         36.25551        38.10008         2.05225
H         37.08933        38.49050         2.42319
O         37.19346        32.47315         2.04431
H         36.96708        33.29385         2.54749
O         31.47359        33.98013         2.17661
H         31.33717        33.07982         2.53152
O         47.38489        41.83192         1.80985
H         48.08130        41.52803         2.45178
O         39.92810        45.89054         1.69958
H         39.43299        46.15960         2.50128
