         430
 CSIRO Nanostructure Databank - Neutral Graphene Oxide Data Set
C         27.90501        27.43963         1.09328
C         27.87666        28.82660         0.99451
C         26.67980        29.51610         0.61745
C         27.83148        31.70618         0.47869
C         26.64423        30.84500         0.30899
C         27.94643        33.02155        -0.30162
C         26.68897        33.84255        -0.27554
C         27.91201        35.94451         0.08995
C         26.69809        35.18868        -0.14172
C         27.90617        37.36197         0.16807
C         26.70493        38.10895        -0.04087
C         27.88567        40.24181         0.12340
C         26.69421        39.47949        -0.08208
C         27.87898        41.67351         0.10848
C         26.69115        42.42681        -0.17710
C         27.84045        44.57993         0.06317
C         26.67808        43.79945        -0.24173
C         27.88314        45.95928        -0.04992
C         30.35941        27.34660         0.94977
C         29.11666        26.72363         1.17118
C         30.31809        28.81432         0.55358
C         29.17897        29.56612         1.25463
C         30.39138        31.72556         0.54469
C         29.12222        31.04047         0.86897
C         30.39365        33.09069         0.35155
C         29.15539        33.81972         0.14472
C         30.36109        35.91425         0.75701
C         29.12772        35.19773         0.25863
C         30.37809        37.39615         0.48388
C         29.12681        38.10955         0.38712
C         30.32243        40.28095         0.67153
C         29.08984        39.52242         0.39302
C         30.32235        41.75338         0.51028
C         29.09222        42.39789         0.35840
C         30.36825        44.64728         0.61404
C         29.03504        43.85705         0.51585
C         30.32124        46.07485         0.26382
C         29.10602        46.68489         0.06556
C         32.80316        24.53024         0.73127
C         31.62947        25.22003         0.92132
C         32.90107        27.37952         0.90556
C         31.57899        26.64114         0.89063
C         32.81495        28.81972         0.45286
C         31.65830        29.51064         0.59750
C         32.90821        31.69751         0.36542
C         31.67243        30.99827         0.85636
C         32.89482        33.10673         0.28195
C         31.65170        33.82852         0.33188
C         32.87343        35.94861         0.26645
C         31.64683        35.21688         0.37091
C         32.86723        37.36543         0.31246
C         31.60078        38.05574         0.44032
C         32.85839        40.24740         0.23945
C         31.62460        39.51175         0.62739
C         32.81501        41.73252         0.24165
C         31.55921        42.48704         0.50279
C         32.85479        44.60156         0.17884
C         31.61414        43.87897         0.44906
C         32.85198        45.99849         0.01579
C         31.62464        46.84009         0.33022
C         32.79893        48.74435        -0.72820
C         31.63096        48.13075        -0.44774
C         35.31913        23.09947         0.03098
C         35.27498        24.45936         0.30198
C         34.03804        25.21344         0.43523
C         35.34245        27.29023        -0.05089
C         34.05838        26.59698         0.35502
C         35.35388        28.79356         0.15117
C         34.05527        29.51155        -0.07559
C         35.34550        31.66578         0.19411
C         34.11114        30.98545         0.22278
C         35.35445        33.09796         0.19437
C         34.11946        33.81494         0.16650
C         35.34002        35.94448         0.03039
C         34.11651        35.24197         0.13722
C         35.33987        37.37808         0.04922
C         34.10622        38.08353         0.22547
C         35.35355        40.20202         0.17660
C         34.14632        39.50878         0.27074
C         35.38879        41.67648         0.34023
C         34.10398        42.45728         0.42385
C         35.32635        44.55361        -0.07890
C         34.10204        43.89914         0.12949
C         35.31995        45.97221        -0.26125
C         34.07827        46.68423        -0.23677
C         35.29330        48.80827        -0.54479
C         34.07317        48.09420        -0.48310
C         35.32767        50.23841        -0.61517
C         37.78656        23.01222        -0.03567
C         36.53001        22.39433        -0.12453
C         37.82654        24.41677         0.45082
C         36.53303        25.16282         0.62313
C         37.82776        27.34876         0.25495
C         36.52994        26.68380         0.70548
C         37.82866        28.74369         0.11408
C         36.55520        29.47103         0.14016
C         37.81161        31.60243         0.12899
C         36.59578        30.92965         0.14726
C         37.85209        33.07376         0.46450
C         36.57629        33.80988         0.16935
C         37.81873        35.90980        -0.14540
C         36.58708        35.21754         0.01927
C         37.77837        37.34813        -0.58910
C         36.55425        38.09276        -0.11865
C         37.81790        40.23405        -0.19431
C         36.57874        39.50024        -0.04203
C         37.81936        41.66605        -0.20945
C         36.61199        42.40783        -0.03746
C         37.79332        44.51640        -0.45106
C         36.57925        43.81237        -0.16414
C         37.78859        45.96303        -0.51352
C         36.54540        46.67991        -0.41463
C         37.76592        48.83062        -0.47191
C         36.53778        48.10161        -0.48248
C         37.76673        50.25039        -0.46648
C         36.50896        50.92855        -0.55761
C         40.25935        20.27990        -0.76901
C         39.05684        20.94949        -0.61441
C         40.25694        23.15263        -0.59114
C         38.99747        22.34160        -0.37046
C         40.32520        24.40657         0.28313
C         39.05666        25.21099         0.22996
C         40.24388        27.29048        -0.48300
C         39.03585        26.58065         0.10296
C         40.37426        28.75174        -0.02479
C         39.04749        29.48726        -0.04030
C         40.30355        31.63141        -0.14574
C         39.05401        30.88587        -0.02174
C         40.29877        33.06673        -0.12550
C         39.08718        33.79629         0.00381
C         40.29174        35.93224        -0.33736
C         39.05733        35.20515        -0.15478
C         40.28351        37.36898        -0.38838
C         39.06533        38.09461        -0.35367
C         40.28892        40.24126        -0.39213
C         39.04854        39.51481        -0.31949
C         40.29548        41.66651        -0.45726
C         39.04177        42.38239        -0.40070
C         40.24938        44.47867        -0.93938
C         39.00755        43.79128        -0.54887
C         40.25103        46.04053        -0.94445
C         38.98490        46.69202        -0.59383
C         40.23251        48.80319        -0.31873
C         39.00676        48.11481        -0.44688
C         40.23805        50.22004        -0.28147
C         39.01082        50.95335        -0.36883
C         40.23818        53.05323        -0.17498
C         39.05177        52.37967        -0.30995
C         42.74250        20.23962        -0.58764
C         41.51419        20.95683        -0.61863
C         42.76260        23.03204        -0.25124
C         41.53635        22.35642        -0.44662
C         42.77926        24.47513        -0.13849
C         41.56746        25.19159        -0.05129
C         42.76483        27.28584        -0.38349
C         41.55401        26.57607        -0.23807
C         42.78956        28.70141        -0.94798
C         41.42173        29.49482        -0.86904
C         42.72465        31.66226        -0.51961
C         41.52105        30.95018        -0.40832
C         42.74724        33.07849        -0.42878
C         41.52182        33.78839        -0.30477
C         42.76094        35.92793        -0.46812
C         41.51717        35.21964        -0.36325
C         42.73905        37.34414        -0.53348
C         41.52945        38.07263        -0.45772
C         42.72666        40.25037        -0.46653
C         41.51913        39.52152        -0.45621
C         42.75136        41.66030        -0.51961
C         41.52894        42.37273        -0.56274
C         42.73288        44.51745        -0.88786
C         41.55889        43.81559        -0.75805
C         42.76843        46.01555        -1.19312
C         41.51075        46.70125        -0.74089
C         42.76922        48.80449        -0.27550
C         41.50293        48.02120        -0.03249
C         42.73577        50.22285        -0.17782
C         41.48292        50.93176        -0.16758
C         42.70559        53.05871        -0.02938
C         41.47596        52.34544        -0.11463
C         43.94214        20.89913        -0.42281
C         45.23605        23.04121        -0.15899
C         43.99209        22.31296        -0.27033
C         45.22668        24.44462        -0.09755
C         44.00578        25.18620        -0.15828
C         45.26080        27.34771        -0.29491
C         43.99944        26.61302        -0.24452
C         45.26270        28.75723        -0.39177
C         43.93709        29.49248        -0.30390
C         45.24733        31.66203        -0.46374
C         43.99706        30.91859        -0.86756
C         45.22804        33.04490        -0.47597
C         43.99741        33.79407        -0.50268
C         45.26900        35.93126        -0.42819
C         44.00653        35.20771        -0.49258
C         45.28530        37.35074        -0.41031
C         44.01790        38.06077        -0.66804
C         45.21926        40.25052        -0.01789
C         44.01499        39.54673        -0.59127
C         45.22114        41.70181        -0.43151
C         44.02358        42.35727        -0.62585
C         45.27651        44.53691        -0.72958
C         44.03113        43.78009        -1.12360
C         45.24375        45.98644        -0.64508
C         44.03837        46.68960        -0.69216
C         45.20988        48.85752        -0.32222
C         43.99923        48.12387        -0.43886
C         45.20121        50.25687        -0.12219
C         43.95214        50.96553        -0.11429
C         43.90314        52.38712        -0.02678
C         47.69636        22.99620        -0.27681
C         46.50241        22.35190        -0.28245
C         47.79232        24.42732         0.03563
C         46.47504        25.19887         0.09122
C         47.72898        27.33504        -0.24613
C         46.49530        26.65037        -0.17791
C         47.73153        28.76487        -0.34821
C         46.48159        29.47188        -0.39236
C         47.70683        31.59858        -0.21792
C         46.49423        30.92013        -0.37125
C         47.67307        33.07556         0.09527
C         46.54320        33.76768        -0.64836
C         47.71919        35.93179        -0.23330
C         46.49697        35.24028        -0.35014
C         47.73637        37.36196        -0.27373
C         46.49132        38.07471        -0.34769
C         47.68932        40.24014        -0.37387
C         46.50962        39.52474        -0.31817
C         47.69033        41.68773        -0.35966
C         46.48071        42.40047        -0.48134
C         47.77997        44.56210        -0.64800
C         46.46006        43.83880        -0.56384
C         47.69200        46.00400        -0.22131
C         46.49703        46.68053        -0.38565
C         47.69649        48.84770         0.10612
C         46.52809        48.17309        -0.56254
C         47.62501        50.24138         0.28362
C         46.43833        50.93724         0.11147
C         50.25003        24.51944        -0.39125
C         49.02427        25.19640        -0.23871
C         50.22143        27.33167        -0.34382
C         48.99064        26.61192        -0.25424
C         50.21877        28.76973        -0.37116
C         48.96345        29.48031        -0.36281
C         50.17667        31.64754        -0.26693
C         48.95990        30.91487        -0.27330
C         50.19515        33.07562        -0.17558
C         48.97960        33.79812        -0.12191
C         50.20139        35.92865        -0.14655
C         48.97089        35.20672        -0.17369
C         50.18881        37.35823        -0.16217
C         48.96344        38.06082        -0.27644
C         50.20035        40.24216        -0.09607
C         48.99306        39.52492        -0.64661
C         50.15343        41.65364         0.07976
C         48.94154        42.39281        -0.15767
C         50.11891        44.50498         0.29557
C         48.95345        43.79663        -0.09579
C         50.09992        45.94611         0.42479
C         48.90756        46.68669         0.15976
C         50.06081        48.74023         0.85232
C         48.88302        48.09997         0.37083
C         51.44113        25.21462        -0.47195
C         52.70544        27.35499        -0.38212
C         51.45965        26.62828        -0.40967
C         52.68095        28.77619        -0.35274
C         51.43859        29.47132        -0.40033
C         52.69704        31.66658        -0.23324
C         51.44597        30.95253        -0.67795
C         52.68352        33.06806        -0.10482
C         51.43932        33.79369        -0.15836
C         52.67117        35.94458         0.00519
C         51.44009        35.21527        -0.09761
C         52.63805        37.36583         0.03300
C         51.42368        38.07921        -0.04446
C         52.59216        40.23504         0.44865
C         51.39573        39.52818         0.08100
C         52.55266        41.63967         0.65711
C         51.33395        42.35973         0.45516
C         52.49946        44.47911         0.98424
C         51.30847        43.78196         0.59468
C         52.48567        45.89228         1.13653
C         51.26967        46.62298         0.87713
C         51.21257        48.02954         1.08283
C         55.14139        27.37748        -0.26606
C         53.96076        26.68117        -0.36386
C         55.13963        28.79869        -0.17198
C         53.91418        29.50536        -0.24138
C         55.13677        31.62390         0.11830
C         53.91325        30.93835        -0.12320
C         55.12970        33.06080         0.25398
C         53.90910        33.78423         0.11495
C         55.13540        35.89199         0.39768
C         53.91213        35.21526         0.16115
C         55.19526        37.37150         0.36009
C         53.89570        38.13395         0.13592
C         55.00150        40.20816         0.97707
C         53.83494        39.54660         0.55316
C         54.96514        41.62545         1.22257
C         53.74676        42.33451         1.03028
C         54.88862        44.44308         1.60111
C         53.70824        43.75170         1.21222
C         54.84632        45.85356         1.76604
C         53.68303        46.55251         1.53746
C         56.35654        29.51347         0.01988
C         56.34948        30.87864         0.17799
C         56.32156        33.77571         0.51881
C         56.31693        35.15694         0.60103
C         56.26518        38.09639         1.05756
C         56.18905        39.43390         1.26844
C         56.12950        42.35123         1.61415
C         56.09265        43.71229         1.80336
O         37.22052        24.57932         1.79471
O         34.82615        42.10525         1.65057
O         47.18836        24.80932         1.31879
O         29.58239        44.30726         1.79325
O         40.15163        45.22003        -2.17265
O         44.16068        38.91150        -1.89711
O         28.31089        31.80155         1.85823
O         31.04033        39.89780         1.91395
O         32.72127        40.99225        -1.04023
O         54.84819        37.90725        -0.96256
O         29.44647        29.53072         2.68216
H         28.83157        30.18116         3.09305
O         45.03407        40.20413         1.43420
H         45.78164        40.68587         1.84647
O         40.03083        27.25867        -1.92050
H         39.90369        26.32032        -2.17906
O         28.16796        32.60899        -1.69026
H         28.21515        33.41992        -2.23882
O         29.95507        28.84321        -0.86317
H         30.68889        28.44158        -1.37479
O         31.77727        31.06688         2.32707
H         31.04033        30.51286         2.69577
O         51.46685        31.05754        -2.16476
H         50.62305        30.67704        -2.49115
O         33.26536        27.50209         2.34267
H         34.25183        27.51123         2.40567
O         42.82701        46.11352        -2.65789
H         43.41333        45.37811        -2.96938
O         40.90626        29.62473        -2.20941
H         41.61860        30.03470        -2.74781
O         43.10530        28.49317        -2.33779
H         42.34396        28.01250        -2.73080
O         46.85620        33.66408        -2.07449
H         46.25113        34.26252        -2.56082
O         46.78539        48.34509        -2.02656
H         46.81105        49.31205        -2.19479
O         36.30577        27.03462         2.09805
H         36.81067        26.37872         2.63341
O         35.53684        27.05600        -1.47346
H         34.88714        27.63323        -1.93926
O         40.19479        23.64008        -1.97426
H         40.20052        22.85599        -2.56336
O         44.11746        43.68033        -2.61279
H         43.46019        43.00853        -2.89780
O         30.28877        35.81529         2.22565
H         31.01716        36.35748         2.59669
O         40.83160        28.72512         1.34973
H         41.73736        29.11371         1.40777
O         40.45634        23.93213         1.65020
H         40.38887        24.70341         2.25083
O         37.63919        37.28247        -2.07297
H         37.61517        38.20782        -2.39889
O         43.58824        29.59137         1.10637
H         44.31126        30.05982         1.57521
O         47.36792        33.18592         1.52114
H         48.10561        32.77413         2.01792
O         48.06707        44.63884        -2.09632
H         47.36850        45.19652        -2.50310
O         41.47645        47.72742         1.42830
H         41.42659        48.58937         1.89471
O         37.95534        33.09391         1.95271
H         37.92447        34.03421         2.23209
O         44.06290        30.83207        -2.32171
H         44.38121        31.69607        -2.65744
O         49.16255        39.54818        -2.11215
H         48.36173        39.14241        -2.50727
O         31.76976        47.21789         1.74532
H         32.63243        47.67534         1.83762
O         33.86984        29.42424        -1.56398
H         34.51423        30.04653        -1.96739
H         26.95825        26.87789         1.06953
H         25.77291        28.90829         0.47142
H         25.71851        31.28534        -0.08797
H         25.73338        33.32674        -0.45194
H         25.73621        35.71828        -0.17982
H         25.75462        37.58182        -0.19530
H         25.73973        39.99123        -0.26138
H         25.75793        41.89096        -0.39575
H         25.75187        44.32353        -0.51974
H         26.96977        46.50819        -0.32143
H         29.06639        25.64195         1.35873
H         29.05595        47.77095        -0.09468
H         32.79753        23.43321         0.78135
H         30.70165        24.64650         1.05581
H         32.79189        49.73292        -1.20931
H         30.68425        48.64176        -0.67063
H         34.38345        22.55298        -0.15446
H         34.38581        50.80034        -0.67393
H         36.46457        21.34008        -0.42663
H         36.47830        52.02566        -0.58552
H         40.26096        19.19074        -0.91849
H         38.13061        20.35709        -0.60901
H         40.25145        54.15160        -0.12847
H         38.11903        52.95585        -0.36519
H         42.72588        19.14599        -0.70093
H         42.68368        54.15683         0.01835
H         44.86797        20.30897        -0.41395
H         44.83377        52.96692         0.02321
H         48.60831        22.43359        -0.52028
H         46.49804        21.27255        -0.48509
H         48.51314        50.80822         0.59464
H         46.44696        52.02357         0.26393
H         50.27517        23.42190        -0.39954
H         50.06536        49.82264         1.03368
H         52.37586        24.64645        -0.55603
H         52.09598        48.57119         1.44358
H         56.10070        26.84130        -0.23365
H         53.99858        25.58512        -0.40993
H         55.76016        46.38503         2.06843
H         53.69651        47.64288         1.66189
H         57.30280        28.95518         0.06170
H         57.30512        31.39385         0.33982
H         57.27360        33.24655         0.65058
H         57.26472        35.68101         0.78236
H         57.13612        37.54166         1.43391
H         57.03232        39.92891         1.76860
H         57.08216        41.82494         1.75770
H         57.00220        44.25437         2.09999
