         344
 CSIRO Nanostructure Databank - Neutral Graphene Oxide Data Set
C          1.37840         1.90886         0.75860
C          1.32182         3.31639         0.59615
C          2.58779         1.26816         0.86590
C          2.48116         4.08066         0.52405
C          1.31478         6.28802         0.98805
C          1.37216         7.64246         1.13185
C          2.37269         5.55692         0.20142
C          2.49679         8.40599         0.67707
C          1.22480        10.60815         0.58326
C          1.20570        11.94261         0.35748
C          2.52418         9.90164         0.89085
C          2.42659        12.71654         0.21243
C          1.26764        14.90868         0.66878
C          1.31461        16.29177         0.80944
C          2.41186        14.17705         0.26490
C          2.49634        17.01099         0.54300
C          2.58059        18.45156         0.73362
C          3.81598         2.01548         0.82677
C          3.75158         3.45063         0.62615
C          5.03853         1.37669         0.95985
C          4.96252         4.18818         0.42843
C          3.68737         6.29498         0.23939
C          3.66649         7.72555         0.28093
C          4.90787         5.61216         0.17360
C          4.88024         8.44865        -0.00439
C          3.67889        10.58148         0.18944
C          3.62695        12.01647         0.01992
C          4.82934         9.87909        -0.11991
C          4.85934        12.71590        -0.27335
C          3.59984        14.89878         0.00770
C          3.64726        16.30168         0.11949
C          4.82331        14.20449        -0.52126
C          4.89240        17.02232        -0.13994
C          3.67540        19.15621         0.38375
C          4.85543        18.52337        -0.31098
C          6.29936         2.16625         1.11579
C          6.21618         3.54067         0.50292
C          7.53207         1.41981         0.71998
C          7.40488         4.22352         0.15347
C          6.13217         6.33647        -0.03524
C          6.09485         7.75650        -0.20452
C          7.36057         5.62801        -0.10401
C          7.32093         8.48401        -0.46453
C          5.99124        10.57954        -0.77919
C          6.04468        12.04907        -0.46876
C          7.31005         9.87416        -0.62478
C          7.30142        12.77618        -0.66534
C          6.09702        14.85426        -0.00516
C          6.07877        16.34581        -0.24351
C          7.31767        14.14551        -0.54447
C          7.36043        17.03256        -0.23325
C          6.17184        19.16704         0.05410
C          7.35850        18.48067         0.01961
C          8.66787         2.06830         0.27109
C          8.65161         3.51150        -0.00010
C          9.90395         1.37318         0.19233
C          9.80541         4.16991        -0.41163
C          8.58294         6.32841        -0.35824
C          8.56446         7.74377        -0.51318
C          9.80378         5.60754        -0.51853
C          9.77705         8.43097        -0.69887
C          8.50715        10.62908        -0.84056
C          8.53449        12.03078        -0.89555
C          9.75135         9.86661        -1.04829
C          9.79925        12.76725        -0.94518
C          8.52059        14.94405        -0.96252
C          8.53154        16.33843        -0.38480
C          9.81190        14.17947        -0.80362
C          9.84066        16.95476         0.03264
C          8.63352        19.14923         0.09857
C          9.83087        18.46458        -0.01323
C         11.10256         2.00665        -0.20611
C         11.04387         3.38762        -0.82944
C         12.31627         1.36076        -0.11090
C         12.33953         4.15510        -0.63532
C         11.01722         6.33263        -0.66748
C         11.00555         7.73366        -0.67044
C         12.30074         5.61966        -1.01168
C         12.26393         8.51261        -0.35577
C         11.05775        10.61912        -1.15072
C         11.04006        12.08314        -1.03108
C         12.29738         9.90362        -0.89455
C         12.29273        12.78094        -0.98822
C         11.04111        14.91211        -0.78227
C         11.03998        16.30358        -0.59839
C         12.29776        14.20376        -0.91340
C         12.25485        17.11868        -0.94235
C         11.08173        19.13444         0.00657
C         12.28547        18.47639        -0.26833
C         13.54622         1.97632        -0.71567
C         13.52991         3.48736        -0.57614
C         14.81806         1.34387        -0.22789
C         14.79271         4.19418        -0.40424
C         13.54575         6.39049        -0.64171
C         13.54314         7.75089        -0.58156
C         14.85300         5.65040        -0.79346
C         14.78512         8.51798        -0.50714
C         13.57505        10.58542        -1.24210
C         13.53274        12.07613        -0.99152
C         14.79295         9.90022        -0.67972
C         14.75589        12.77771        -0.92695
C         13.53680        14.91163        -0.93470
C         13.55226        16.35317        -0.82155
C         14.75260        14.19748        -0.98840
C         14.75249        17.04500        -0.66185
C         13.51729        19.12188        -0.09718
C         14.74987        18.46227        -0.32418
C         15.90590         2.06844         0.12632
C         15.91113         3.52358         0.01823
C         17.14716         1.39438         0.66560
C         17.12278         4.25784         0.54953
C         16.02285         6.39495        -0.20334
C         16.00806         7.81321        -0.24805
C         17.18466         5.71160         0.15939
C         17.20704         8.54551        -0.02417
C         15.99982        10.65357        -0.51871
C         16.00372        12.06077        -0.71548
C         17.19976         9.96506        -0.14658
C         17.24217        12.78771        -0.63213
C         16.02771        14.93614        -1.31215
C         16.02369        16.37194        -0.80173
C         17.27523        14.17384        -0.92281
C         17.20161        17.08108        -0.64937
C         15.96389        19.14375        -0.14951
C         17.20697        18.48886        -0.30102
C         18.42279         2.12736         0.31323
C         18.43003         3.53493         0.34617
C         19.61631         1.44133         0.08870
C         19.65801         4.24380         0.37330
C         18.41331         6.41343         0.31310
C         18.42348         7.83684         0.21460
C         19.65115         5.68875         0.42608
C         19.63490         8.57182         0.40002
C         18.41997        10.69126         0.01917
C         18.44099        12.07356        -0.29727
C         19.61602         9.97413         0.36644
C         19.74695        12.73928        -0.40019
C         18.53043        14.90095        -1.03891
C         18.51058        16.43513        -0.87967
C         19.82167        14.20831        -0.74990
C         19.72542        17.10435        -0.41312
C         18.42607        19.17989        -0.15085
C         19.68582        18.52531        -0.17154
C         20.87800         2.09340         0.10157
C         20.89826         3.51882         0.37576
C         22.01980         1.31763        -0.29132
C         22.10477         4.28046         0.49250
C         20.87081         6.41575         0.46225
C         20.88742         7.85341         0.53976
C         22.10334         5.71112         0.46769
C         22.10080         8.53657         0.67843
C         20.83167        10.72254         0.74468
C         20.89780        12.16667         0.35212
C         22.12087         9.98710         1.09927
C         22.19785        12.84471         0.21776
C         20.98768        14.97503        -0.28631
C         20.91691        16.37617        -0.18241
C         22.20744        14.24269        -0.01034
C         22.11895        17.13528         0.22036
C         20.89559        19.25393        -0.04068
C         22.15187        18.61059         0.03591
C         23.33494         1.63620         0.09517
C         23.36767         3.67115         0.68804
C         24.58560         1.35483        -0.46592
C         24.60110         4.28014         0.38116
C         23.34300         6.41971         0.49349
C         23.34284         7.84094         0.61901
C         24.58161         5.73059         0.32976
C         24.58501         8.53907         0.71112
C         23.39276        10.71280         0.67647
C         23.40885        12.11972         0.43834
C         24.60578         9.99857         0.73609
C         24.66123        12.80660         0.36615
C         23.44127        14.93283         0.05412
C         23.42283        16.38680         0.25310
C         24.68004        14.23994         0.16321
C         24.64227        17.14915        -0.10628
C         23.37460        19.29062         0.09833
C         24.64577        18.61521         0.16532
C         25.77338         2.11805        -0.17572
C         25.78662         3.51230         0.19942
C         27.01613         1.47814        -0.42872
C         27.09224         4.27016         0.27450
C         25.78019         6.45771         0.22977
C         25.79443         7.83249         0.54828
C         26.98388         5.74398        -0.33811
C         27.09290         8.48541         0.86204
C         25.84982        10.69049         0.70856
C         25.86369        12.08322         0.57111
C         27.13162         9.99144         1.13238
C         27.15091        12.80445         0.70845
C         25.89623        14.95344         0.09560
C         25.92199        16.37839        -0.28235
C         27.15104        14.30470         0.45626
C         27.21740        17.19372        -0.26388
C         25.84309        19.21582         0.46594
C         27.07995        18.37896         0.72543
C         28.23145         2.18758        -0.54931
C         28.24764         3.58447        -0.38284
C         29.48642         1.46929        -0.70560
C         29.40719         4.33301        -0.86759
C         28.26353         6.44636        -0.14320
C         28.35625         7.74298         0.52251
C         29.51066         5.86010        -0.73329
C         29.63012         8.49986         0.38512
C         28.38976        10.66931         0.58208
C         28.39857        12.03880         0.49882
C         29.62109         9.91724         0.38568
C         29.60447        12.78899        -0.02901
C         28.42123        15.01714         0.21578
C         28.44699        16.37811         0.08573
C         29.69627        14.25063         0.48623
C         29.67727        17.11097         0.30824
C         28.36460        19.15888         0.75877
C         29.59796        18.51959         0.61897
C         30.67790         2.11375        -0.77992
C         30.70765         3.56172        -1.03279
C         31.96803         4.33444        -0.89075
C         30.73842         6.25010         0.15494
C         30.82293         7.77029         0.21900
C         31.98838         5.56733        -0.36475
C         32.04131         8.47896         0.13934
C         30.86740        10.62633         0.24956
C         30.89649        12.05089         0.20319
C         32.06455         9.86020         0.16930
C         32.10236        12.81029         0.29212
C         30.91977        14.98202        -0.11637
C         30.92194        16.44120         0.32458
C         32.15122        14.17603         0.20577
C         32.08678        17.17025         0.57087
C         30.82465        19.22842         0.84360
C         32.03035        18.55976         0.82406
O         10.33750        10.11360        -2.38925
O         27.16810        13.72982         1.84960
O         18.62547        15.79613        -2.20973
O         25.08640        16.74255        -1.45044
O         22.74295        16.75272         1.50125
O         20.12834        13.16775        -1.74801
O         23.39990         2.41429         1.28160
O         29.87752         3.90545        -2.20384
O         20.53920        11.79028         1.73276
O         27.80204         7.75103         1.93285
O         30.82058        15.06063        -1.56139
H         30.42897        14.21400        -1.88825
O          6.43251         2.40496         2.58855
H          5.62790         2.89114         2.87106
O         17.05386         1.38742         2.10659
H         16.94636         2.32916         2.38617
O          4.67092        18.79948        -1.74545
H          5.40412        18.35406        -2.22170
O         29.89662        14.20414         1.91329
H         29.02541        13.97632         2.32200
O         22.18725         9.94091         2.55768
H         21.80403        10.79070         2.87802
O         27.44891        17.73191        -1.57634
H         26.59862        17.65616        -2.07180
O         29.37688        12.84006        -1.48997
H         29.50272        11.93155        -1.83862
O         16.04738        15.04236        -2.78066
H         16.94864        15.37738        -3.01565
O          6.11615        14.65768         1.44105
H          6.94616        15.04891         1.78581
O          2.74765        10.09080         2.33842
H          2.83083        11.05676         2.48992
O         10.94452         3.17416        -2.28060
H         11.18162         4.04073        -2.70029
O         16.91052         4.26139         2.02311
H         17.66962         4.73925         2.42259
O         27.38555         4.53149         1.67781
H         27.31438         3.68581         2.16854
O          9.96230        16.61847         1.47962
H          9.39992        17.25406         1.97238
O          5.71555        10.51604        -2.23371
H          4.93116        11.07998        -2.40492
O          8.37157        15.14818        -2.41907
H          8.22629        14.26783        -2.82759
O         13.71255        10.43747        -2.71937
H         12.86665        10.73344        -3.12220
O         15.10530         5.62080        -2.25782
H         15.30976         6.54059        -2.53537
O         30.50754         5.72777         1.48366
H         29.65799         6.09213         1.81878
O         12.12173        17.41722        -2.38710
H         12.97426        17.80063        -2.68548
O          1.92783         5.60256        -1.20866
H          1.89209         6.54742        -1.46996
O         26.91550        17.76084         2.04342
H         26.80135        18.47465         2.70519
O         12.31726         5.58079        -2.49588
H         13.25920         5.40165        -2.75144
O          4.81363        14.37389        -1.97144
H          3.91170        14.16858        -2.29442
O         27.18406        10.16807         2.57191
H         27.61997         9.36301         2.93873
O         12.19203         8.67407         1.12879
H         12.22863         7.77544         1.52215
O         13.43737         1.70290        -2.15532
H         12.57210         2.08883        -2.44677
O         29.70942         6.42020        -2.05862
H         30.02619         5.67131        -2.62539
O         26.74134         5.55504        -1.76215
H         27.54437         5.84205        -2.25144
H          0.44200         1.33487         0.79706
H          0.33990         3.79881         0.49391
H          2.63681         0.17802         0.99994
H          0.43584         5.73488         1.34972
H          0.55192         8.16782         1.64299
H          0.27839        10.05407         0.66806
H          0.24046        12.45652         0.23716
H          0.33172        14.38128         0.89908
H          0.41731        16.83473         1.14034
H          1.71524        18.96023         1.18604
H          5.07335         0.28576         1.10084
H          3.69959        20.24699         0.52934
H          7.57779         0.34221         0.94062
H          6.18651        20.26182         0.17355
H          9.94368         0.32467         0.52573
H          8.64393        20.24909         0.14558
H         12.36215         0.33445         0.28572
H         11.10378        20.20819         0.25278
H         14.85245         0.24406        -0.18359
H         13.53254        20.15190         0.29080
H         17.19553         0.32946         0.32901
H         15.94738        20.20967         0.12124
H         19.59161         0.34754        -0.02982
H         18.39766        20.26212         0.04354
H         21.84101         0.43928        -0.93001
H         20.85083        20.35313        -0.02808
H         24.67269         0.55056        -1.21164
H         23.37022        20.39104         0.11794
H         27.02264         0.39259        -0.60460
H         25.87742        20.29538         0.68252
H         29.45527         0.37257        -0.62225
H         28.33915        20.22908         1.02156
H         31.62752         1.56225        -0.72282
H         32.90602         3.84840        -1.20295
H         32.95828         6.07398        -0.25581
H         32.99483         7.94242         0.04877
H         33.03298        10.37128         0.08921
H         33.04519        12.27282         0.47424
H         33.12906        14.67437         0.27813
H         33.06757        16.67511         0.56084
H         30.78714        20.30671         1.05574
H         32.96478        19.10877         1.00741
