         720
 CSIRO Nanostructure Databank - Neutral Graphene Oxide Data Set
C         22.94986        27.34659         1.08971
C         22.92191        28.68611         1.23456
C         23.14060        31.48812         0.21860
C         23.14481        32.84794        -0.02814
C         23.05388        35.86366        -0.36341
C         23.05689        37.20933        -0.45459
C         23.05539        40.15642        -0.79586
C         23.05082        41.53413        -0.87418
C         23.05619        44.49899        -1.07825
C         23.03231        45.85973        -1.10025
C         25.40850        24.50040         1.19287
C         24.21582        25.19449         1.18961
C         25.42465        27.29899         0.96596
C         24.20456        26.60744         1.07190
C         25.39867        28.78396         0.73426
C         24.19595        29.46555         1.44396
C         25.42169        31.62824         1.18661
C         24.17731        30.87553         0.93410
C         25.40655        33.11331         1.07199
C         24.08516        33.79921         0.68319
C         25.40011        35.95310         0.45906
C         24.31998        35.07294        -0.15447
C         25.46237        37.37345         0.03921
C         24.26897        38.01075        -0.33939
C         25.47171        40.16269        -0.41217
C         24.25133        39.43234        -0.53037
C         25.46315        41.59019        -0.53864
C         24.24387        42.28905        -0.72755
C         25.39925        44.43213        -0.35970
C         24.22657        43.74541        -0.68071
C         25.36012        45.86637        -0.05084
C         24.09374        46.64096        -0.45734
C         25.38405        48.76394        -0.52077
C         24.24428        48.08125        -0.74849
C         28.01552        23.13092         1.49469
C         27.88742        24.45665         1.00799
C         26.65745        25.17202         1.05114
C         27.88881        27.35456         1.01241
C         26.65535        26.61176         0.94530
C         27.93100        28.74751         1.14259
C         26.69898        29.50908         1.04117
C         27.99586        31.64088         0.90063
C         26.70585        30.88329         1.06842
C         27.89860        33.14064         1.12091
C         26.72407        33.81459         0.96344
C         27.91908        36.06550         0.86645
C         26.66101        35.29955         0.95357
C         27.93036        37.40289         0.48409
C         26.68927        38.08370         0.13890
C         27.93966        40.18840        -0.16238
C         26.69154        39.47246        -0.13475
C         27.91924        41.61733        -0.35815
C         26.70461        42.31127        -0.47764
C         27.85362        44.49517        -0.45632
C         26.67959        43.76312        -0.41166
C         27.98010        45.91194         0.05593
C         26.63908        46.63886         0.15127
C         27.91248        48.86588        -0.18427
C         26.62262        48.13443        -0.00244
C         27.91066        50.29843        -0.01634
C         30.42658        23.00380         0.90029
C         29.20405        22.44744         1.50183
C         30.39065        24.42837         0.41777
C         29.06791        25.20298         0.41809
C         30.44119        27.31993         1.10826
C         29.14294        26.57468         1.05921
C         30.38978        28.79498         1.18397
C         29.19227        29.45707         1.28939
C         30.49477        31.67689         1.45000
C         29.16127        30.93860         1.70427
C         30.46078        33.15785         1.69216
C         29.14408        33.88283         1.49244
C         30.46925        36.10545         1.04297
C         29.14608        35.38595         1.30786
C         30.42607        37.45369         0.46125
C         29.19220        38.11724         0.31492
C         30.42560        40.21046        -0.44896
C         29.15443        39.50687        -0.03795
C         30.39042        41.71451        -0.28219
C         29.16268        42.34113        -0.39033
C         30.38515        44.52222        -0.95334
C         29.10234        43.77151        -0.72829
C         30.35621        46.03091        -0.99187
C         29.07102        46.72850        -0.65397
C         30.34357        48.90168        -0.64753
C         29.10707        48.19792        -0.43262
C         30.24894        50.40349        -0.86594
C         29.01474        51.03001        -0.28196
C         32.94883        20.24103         1.44129
C         31.79666        20.94703         1.51227
C         32.91965        23.05260         0.94921
C         31.73943        22.34743         1.14242
C         32.93614        24.45056         0.67270
C         31.69894        25.21041         0.20517
C         32.86982        27.31816         0.84797
C         31.70671        26.64349         0.71946
C         32.92476        28.75241         1.32441
C         31.66943        29.53518         0.88073
C         33.03437        31.62809         1.49226
C         31.65622        30.99828         1.29799
C         33.06417        33.16567         1.40116
C         31.75465        33.95000         1.56813
C         32.95195        36.11793         0.98038
C         31.72475        35.34186         1.07731
C         32.94520        37.51070         0.52886
C         31.68100        38.16820         0.30001
C         32.88202        40.31395         0.26848
C         31.66209        39.53279         0.04480
C         32.85483        41.80683         0.15336
C         31.61492        42.49093        -0.29589
C         32.90559        44.57719        -0.96401
C         31.63476        43.83822        -0.59965
C         32.84429        46.09557        -0.84170
C         31.63643        46.77693        -0.87104
C         32.83213        48.94789        -0.84624
C         31.57509        48.22684        -0.80040
C         32.78048        50.47003        -1.02424
C         31.52193        51.12985        -0.53218
C         32.69965        53.25895        -0.11787
C         31.55974        52.46641        -0.10030
C         35.56780        18.85429         1.57825
C         35.50254        20.20813         1.24660
C         34.19534        20.89496         0.89544
C         35.46017        23.04423         0.72034
C         34.23279        22.36864         1.30857
C         35.40299        24.46546         0.49495
C         34.15153        25.14144         0.62872
C         35.26849        27.32652         0.07034
C         34.20651        26.61350         0.93912
C         35.29933        28.81071         0.34957
C         34.16406        29.45779         0.76890
C         35.25556        31.67115         0.10441
C         34.05102        30.92066         0.61163
C         35.27283        33.14998         0.20070
C         34.23089        33.84144         0.74947
C         35.42737        36.03114         0.16964
C         34.30474        35.32145         0.81919
C         35.40768        37.45316         0.08169
C         34.16985        38.19854         0.27540
C         35.35442        40.37010        -0.13030
C         34.16607        39.61093         0.14327
C         35.39450        41.75888        -0.09470
C         34.15731        42.54884         0.08967
C         35.42270        44.68704        -0.65923
C         34.14731        43.99730        -0.31294
C         35.33683        46.13080        -0.83613
C         34.10528        46.81467        -0.84606
C         35.33995        49.04482        -0.73285
C         34.04245        48.26860        -0.90757
C         35.22224        50.53194        -0.99005
C         33.99966        51.20213        -0.42310
C         35.27415        53.42544        -0.35392
C         33.95983        52.73271        -0.75177
C         35.42729        54.88436        -0.34219
C         37.99925        18.95054         1.65106
C         36.80217        18.23643         1.78527
C         37.96516        20.32285         1.30705
C         36.70470        20.94041         1.07773
C         37.85945        22.89322        -0.03002
C         36.64204        22.33273         0.66228
C         37.82121        24.43683        -0.14024
C         36.58198        25.19853         0.16346
C         37.80154        27.38120         0.14597
C         36.59607        26.61168         0.12897
C         37.77821        28.78994         0.18209
C         36.54557        29.54124         0.15463
C         37.74450        31.72909        -0.03010
C         36.53270        30.94421         0.07137
C         37.72801        33.07343        -0.31862
C         36.42533        33.81293        -0.52232
C         37.73836        35.97331        -0.62051
C         36.54137        35.29661        -0.25459
C         37.71870        37.39790        -0.72025
C         36.55687        38.12128        -0.41314
C         37.79859        40.27576        -0.81565
C         36.45276        39.58087        -0.80781
C         37.89773        41.75281        -0.63960
C         36.69450        42.55648        -0.07417
C         37.93268        44.69690        -0.73767
C         36.60285        43.98137        -0.61151
C         37.75616        46.06124        -1.44292
C         36.66046        46.87469        -0.71917
C         37.84513        48.92938        -1.32266
C         36.61846        48.32923        -1.15576
C         38.09749        50.31975        -1.63278
C         36.21064        51.35776        -1.41586
C         37.83519        53.31871        -0.95182
C         36.51168        52.66217        -0.79756
C         37.87920        54.67930        -0.70430
C         36.65870        55.43936        -0.46739
C         40.62306        16.19445         1.75276
C         39.41747        16.81053         1.77105
C         40.53653        19.08702         2.06551
C         39.28437        18.27150         1.98481
C         40.49891        20.54453         1.66629
C         39.20154        21.10088         1.13720
C         40.42465        22.98574        -0.01489
C         39.17021        22.31230         0.50481
C         40.35309        24.49806         0.15597
C         39.09051        25.22571        -0.17770
C         40.27936        27.37481         0.03294
C         39.09343        26.69972         0.06262
C         40.41060        28.82732         0.42135
C         39.04015        29.53771         0.42968
C         40.32093        31.77087         0.09969
C         39.01676        31.03619         0.29343
C         40.24839        33.27674        -0.08695
C         38.98474        33.74441        -0.83097
C         40.17450        35.95051        -1.04444
C         38.95375        35.25902        -0.83728
C         40.18931        37.34336        -1.33298
C         38.89159        38.05021        -1.35659
C         40.17800        40.24088        -1.81732
C         38.88094        39.53650        -1.54068
C         40.24099        41.70837        -1.72348
C         38.97211        42.43344        -1.45226
C         40.22101        44.61721        -1.85529
C         38.95799        43.92395        -1.53217
C         40.30137        46.06973        -1.64392
C         39.11051        46.74671        -1.44510
C         40.36598        48.91202        -0.89629
C         39.08570        48.15773        -1.05232
C         40.40020        50.39340        -0.93679
C         39.16841        51.08565        -1.21859
C         40.39181        53.22886        -0.72364
C         39.13868        52.60912        -1.37538
C         40.33340        54.62235        -0.35821
C         39.16136        55.37977        -0.60882
C         40.46632        57.44076        -0.47773
C         39.25740        56.79650        -0.65419
C         43.08678        16.24596         1.78119
C         41.87288        16.90803         1.89668
C         43.17387        19.10614         1.75159
C         41.86157        18.36191         2.08320
C         43.10261        20.50566         1.29927
C         41.79924        21.23233         1.31911
C         42.90733        23.17634         0.25932
C         41.74329        22.48306         0.53602
C         42.86716        24.52982        -0.19174
C         41.61832        25.26663         0.02776
C         42.85259        27.40171        -0.16989
C         41.52954        26.68801        -0.46709
C         42.79774        28.86029        -0.55711
C         41.42942        29.52704        -0.55306
C         42.74269        31.72409        -0.79537
C         41.55306        31.01024        -0.26457
C         42.70017        33.14404        -0.91710
C         41.48601        33.86347        -0.74661
C         42.66006        35.96140        -1.17472
C         41.43524        35.23639        -1.03671
C         42.63953        37.38074        -1.22818
C         41.42129        38.04387        -1.42572
C         42.78907        40.23270        -1.86512
C         41.47405        39.47158        -1.82579
C         42.77061        41.73383        -2.12468
C         41.39442        42.39272        -2.06290
C         43.09194        44.81144        -1.79328
C         41.25763        43.81559        -2.28307
C         42.80611        46.06054        -1.24029
C         41.57468        46.77099        -1.40211
C         42.82279        48.84658        -0.82984
C         41.61084        48.15520        -1.09564
C         42.92659        50.33910        -1.03670
C         41.60305        51.07633        -0.88003
C         42.96149        53.14253        -0.98771
C         41.60144        52.51480        -0.80133
C         42.54921        54.64065         0.83414
C         41.47688        55.31354         0.17740
C         42.86400        57.34570         0.19912
C         41.60763        56.71702        -0.03187
C         44.30542        16.92937         1.56402
C         45.53831        19.00921         0.92398
C         44.35957        18.30866         1.39026
C         45.49842        20.39926         0.73667
C         44.24955        21.11807         0.83911
C         45.33333        23.06945        -0.35298
C         44.26493        22.62054         0.63596
C         45.21259        24.42925        -0.97570
C         44.00882        25.23596        -0.65622
C         45.23250        27.35270        -1.11083
C         43.98995        26.61887        -0.80673
C         45.23335        28.85063        -1.05617
C         43.93357        29.55692        -0.86360
C         45.14233        31.70940        -1.30791
C         43.92179        31.00965        -1.02800
C         45.12156        33.10453        -1.41607
C         43.91128        33.84559        -1.23949
C         45.12216        36.03220        -1.14590
C         43.89437        35.26779        -1.23626
C         45.11291        37.35444        -0.78833
C         43.83773        38.16209        -0.74984
C         45.20871        40.23244        -1.24985
C         44.01480        39.55708        -1.36150
C         45.27712        41.69121        -1.32792
C         44.15487        42.52393        -1.98388
C         45.16607        44.47311        -0.65054
C         44.09335        43.91682        -1.36278
C         45.07404        45.83697        -0.10366
C         43.82639        46.66072        -0.36895
C         45.10370        48.75347         0.12595
C         43.93799        48.12512        -0.38333
C         45.12193        50.19781         0.22212
C         44.05463        50.95704        -0.25559
C         45.10577        53.04557         0.67297
C         44.26280        52.43845        -0.46510
C         44.99405        54.36193         1.16781
C         43.82970        55.21305         0.86899
C         43.96734        56.58908         0.54567
C         47.82502        18.84828         0.01045
C         46.71357        18.26610         0.53321
C         48.00914        20.30006        -0.00512
C         46.72930        21.13604         0.37395
C         47.87436        23.15737        -0.67179
C         46.65435        22.44888        -0.23681
C         47.76656        24.52973        -1.33033
C         46.41009        25.13728        -1.54953
C         47.60073        27.37275        -2.20456
C         46.34518        26.61881        -1.79463
C         47.57900        28.92323        -2.26511
C         46.39026        29.59807        -1.59818
C         47.65219        31.70054        -1.61053
C         46.38488        30.97254        -1.54200
C         47.65806        33.07605        -1.55062
C         46.38591        33.83220        -1.65506
C         47.65202        35.94160        -0.94204
C         46.38782        35.32426        -1.45079
C         47.63258        37.30143        -0.34536
C         46.33318        38.10405        -0.30554
C         47.65617        40.17723        -0.45453
C         46.49766        39.42243        -1.08210
C         47.62015        41.65115        -0.40390
C         46.39880        42.36105        -0.85583
C         47.55424        44.44381        -0.07851
C         46.40064        43.77922        -0.55805
C         47.48647        45.82882         0.29607
C         46.30395        46.55940         0.23858
C         47.39896        48.65750         0.98778
C         46.25774        47.98727         0.49400
C         47.41954        50.07378         1.13394
C         46.28910        50.84892         0.77496
C         47.33717        52.86846         1.74301
C         46.24646        52.26413         1.04953
C         47.20352        54.20094         2.19148
C         46.03945        54.90714         1.95298
C         49.94290        20.12888        -1.57167
C         49.01237        20.93706        -0.90020
C         50.08736        22.96347        -1.82863
C         49.05401        22.34774        -1.06759
C         50.15027        24.43543        -2.00005
C         48.98455        25.15619        -1.92953
C         50.19070        27.38977        -2.39942
C         48.90227        26.61410        -2.29109
C         50.19212        28.93952        -2.38033
C         48.89888        29.57930        -1.87188
C         50.20100        31.70404        -1.82510
C         48.90191        30.92918        -1.65408
C         50.17903        33.06256        -1.13133
C         48.90237        33.82062        -1.20777
C         50.19072        36.00695        -0.94503
C         48.93593        35.32675        -1.46012
C         50.19703        37.25293        -0.40827
C         48.94457        38.02267        -0.00822
C         50.13865        40.19128        -0.44776
C         48.97861        39.48566        -0.43575
C         50.19345        41.69688        -0.71518
C         48.89635        42.40534        -0.35659
C         50.11097        44.55510        -0.04751
C         48.83823        43.74615        -0.12209
C         49.94968        45.71368         0.92567
C         48.64329        46.42415         1.00527
C         49.87169        48.63691         1.27612
C         48.57432        47.86475         1.52784
C         49.86534        50.06828         1.63091
C         48.62369        50.75248         1.59471
C         49.78981        52.77456         2.27747
C         48.58020        52.13452         1.90351
C         50.86914        20.70246        -2.43225
C         52.88128        23.31607        -3.14269
C         50.94288        22.09436        -2.54888
C         52.74675        24.53027        -2.53084
C         51.50487        25.14645        -1.88574
C         52.66581        27.41116        -1.80975
C         51.46576        26.64176        -2.22042
C         52.64955        28.77571        -1.52611
C         51.43789        29.54479        -1.70938
C         52.64552        31.62133        -1.11114
C         51.45120        30.91593        -1.48072
C         52.65452        33.06032        -0.97849
C         51.46438        33.78939        -1.11716
C         52.78228        35.96122        -0.96053
C         51.44885        35.24437        -1.22016
C         52.73790        37.34685        -0.53369
C         51.47773        37.98819        -0.04256
C         52.71568        40.22239        -0.30754
C         51.43308        39.46117        -0.47822
C         52.67328        41.66044         0.01444
C         51.42188        42.38333        -0.10901
C         52.57525        44.45365         0.58775
C         51.34481        43.71302         0.24166
C         52.49052        45.76264         1.29758
C         51.17849        46.43600         1.39302
C         52.41713        48.64092         1.71121
C         51.18546        47.92374         1.32411
C         52.36043        50.01472         1.91481
C         51.08166        50.73034         1.91587
C         50.99952        52.10367         2.26838
C         55.31473        23.24990        -2.88057
C         54.16920        22.71939        -3.40842
C         55.30273        24.53381        -2.23791
C         54.01674        25.27896        -2.34040
C         55.09054        27.27833        -1.15573
C         53.95094        26.70674        -1.91508
C         55.08507        28.73896        -0.95513
C         53.88022        29.46018        -1.13060
C         55.03665        31.55357        -0.48524
C         53.86795        30.89172        -0.93396
C         55.05996        32.97436        -0.24303
C         53.86992        33.74957        -0.56549
C         54.95431        35.82802         0.27382
C         53.90779        35.14097        -0.48978
C         55.14064        37.28018         0.15596
C         54.04933        38.06909        -0.54086
C         55.07767        40.10755         0.45131
C         53.96303        39.48315        -0.02975
C         55.04052        41.51345         0.79375
C         53.83756        42.25054         0.51142
C         55.01987        44.30826         1.42677
C         53.87620        43.69945         0.72282
C         54.92458        45.73400         1.82976
C         53.72717        46.55594         1.51020
C         54.83468        48.59635         2.52127
C         53.66048        47.89163         1.84027
C         54.79271        50.08198         2.26206
C         53.62465        50.72796         2.07078
C         57.76153        24.58001        -1.88020
C         56.45856        25.17003        -1.77844
C         57.61606        27.27645        -0.88874
C         56.37997        26.50172        -1.11557
C         57.54475        28.65754        -0.52658
C         56.29192        29.34627        -0.52645
C         57.54783        31.47821         0.11773
C         56.22069        30.75427        -0.12624
C         57.57277        32.98186        -0.09998
C         56.23742        33.61777         0.17808
C         57.45707        35.75413         0.91192
C         56.21766        34.99497         0.66053
C         57.45732        37.14097         0.97818
C         56.28183        37.90201         0.57908
C         57.43471        40.02165         1.33866
C         56.41705        39.40266         0.40543
C         57.33117        41.35340         1.71541
C         56.17230        42.14308         1.35138
C         57.49373        44.24522         1.88261
C         56.15902        43.56834         1.63368
C         57.42009        45.67892         2.33654
C         56.15999        46.44109         2.25902
C         57.36649        48.48935         2.96621
C         56.20739        47.96173         2.14604
C         58.89023        25.25717        -1.50106
C         60.05902        27.32443        -0.77001
C         58.84849        26.62137        -1.04909
C         60.02559        28.64586        -0.41542
C         58.79226        29.37323        -0.32109
C         60.01487        31.56107        -0.06033
C         58.80566        30.76777        -0.10905
C         60.02270        32.85432         0.36168
C         58.74987        33.55114         0.67644
C         59.91462        35.75113         1.43206
C         58.69256        34.98452         1.16322
C         59.88090        37.10204         1.53510
C         58.66658        37.86656         1.35054
C         59.78611        39.97673         2.08760
C         58.62578        39.24614         1.60193
C         59.68622        41.24142         2.54257
C         58.34759        41.92191         2.69916
C         59.49485        44.07738         3.34667
C         58.46974        43.43226         2.68475
C         59.58066        45.48835         3.42106
C         58.49685        46.28740         2.97926
C         58.41482        47.71359         3.30892
O         56.74406        31.03114         1.23036
O         29.67108        43.95352        -2.10595
O         29.86071        26.65250         2.31767
O         51.80218        22.53528        -3.54879
O         32.70853        41.19164         1.48217
O         38.44515        24.84397        -1.43106
O         49.06242        45.45993         2.05308
O         38.91429        30.40401         1.61399
O         42.34414        44.42422        -2.90968
O         37.11482        50.94281        -2.39288
O         55.23970        45.90401         3.29440
O         34.11845        43.64657         1.08981
O         34.55232        26.62226         2.29927
O         38.37800        40.83575         0.40742
O         47.54522        36.10372         0.50789
O         25.64342        35.81566         1.88967
O         25.31824        32.48604         2.41332
O         45.69558        28.05056         0.12688
O         54.22011        26.39463        -3.34114
O         34.15117        31.27093        -0.79963
O         26.54649        47.49606         1.33224
O         40.74486        39.72632        -3.06220
O         44.02058        46.00623         0.92358
O         29.63151        33.52339         2.82594
O         58.49942        33.81999         2.07500
O         47.36284        40.82085         0.82701
O         38.47621        38.69409        -2.65716
O         29.41941        46.46459        -2.04697
O         42.95994        40.79585        -3.22136
O         41.15898        21.40519         2.64793
O         28.91031        30.96756         3.04778
O         32.69027        33.74091         2.68310
O         40.99558        25.01989         1.34218
O         41.29628        31.40997         1.13032
O         43.11212        54.03442        -1.81501
O         48.07837        26.83817        -3.47537
O         55.45027        26.51330         0.03950
O         55.15111        35.29189         1.61180
O         48.06298        24.40131         0.11784
O         38.40056        43.12645        -2.63254
O         53.55083        44.48199        -0.50134
O         44.87359        23.21722        -1.74733
O         47.86544        20.94297         1.28145
O         50.27831        32.01053        -3.19941
O         30.27505        23.34104        -0.56461
O         36.04241        52.69204         0.63644
O         42.73330        18.86686         3.13046
O         33.92841        35.88852         2.06551
O         39.78796        18.76860         3.28398
O         39.62755        48.40924         0.30057
O         50.58068        48.34189         0.03372
O         50.97234        26.91863        -3.56514
O         51.72342        45.77282         2.57148
O         24.34541        46.23454         0.92283
O         46.00627        25.66972        -2.84375
O         46.39184        34.78475        -2.81128
O         29.81349        36.08067         2.39045
O         49.40627        33.30442         0.09105
O         52.27201        35.73325        -2.32761
O         52.19359        39.82835        -1.68266
O         34.78553        27.16841        -1.29643
H         35.27263        27.79380        -1.87251
O         39.29599        52.92230        -2.79163
H         40.18226        52.61230        -3.07545
O         24.44241        29.48726         2.86834
H         25.01205        30.25548         3.09049
O         32.80301        50.63600        -2.48199
H         31.86786        50.50651        -2.79047
O         33.88741        52.98828        -2.17409
H         33.32262        52.28275        -2.58529
O         47.41505        29.26661        -3.66807
H         48.31601        29.27527        -4.07815
O         50.23698        29.33980        -3.77426
H         50.82901        28.70371        -4.24062
O         36.01148        39.58390        -2.20241
H         36.71359        39.12384        -2.73153
O         31.85080        25.32693        -1.23737
H         31.62684        24.44616        -1.61452
O         35.51099        49.02213         0.74909
H         34.78907        49.59544         1.13063
O         48.40422        47.81157         2.96517
H         48.65981        46.90297         3.25426
O         51.60918        38.02118         1.41491
H         50.69401        38.00199         1.79666
O         25.16295        28.97931        -0.69495
H         25.79174        28.40811        -1.18504
O         28.74055        25.45532        -0.97771
H         28.94957        24.62534        -1.46339
O         37.28322        45.85101        -2.78563
H         37.75627        45.08915        -3.18594
O         46.12448        38.42942         1.09849
H         46.22440        37.58540         1.59473
O         28.48930        45.75815         1.41370
H         27.95609        46.35695         1.98996
O         41.41778        26.65901        -1.92520
H         40.67380        26.06720        -2.17352
O         40.46849        22.71846        -1.44782
H         39.53364        22.68615        -1.77746
O         33.00762        28.70827         2.75055
H         33.64785        27.96335         2.95450
O         37.76116        22.38616        -1.40837
H         37.05602        22.89304        -1.86564
O         36.12209        33.70368        -1.95445
H         36.98084        33.62772        -2.43194
O         34.09646        20.87600        -0.55874
H         34.00393        19.94386        -0.84553
O         51.76691        25.11547        -0.45000
H         51.66948        24.19462        -0.12748
O         33.46546        31.30298         2.82788
H         32.88625        31.78559         3.45874
O         23.39130        34.19277         1.88350
H         23.75952        33.64836         2.61900
O         33.90201        51.07657         1.01867
H         34.62490        51.64066         1.39020
O         54.63964        48.43554         3.94632
H         54.63556        47.46347         4.12840
O         31.75157        29.54590        -0.57808
H         30.97246        30.02781        -0.92821
O         42.30984        53.45917         1.48162
H         43.12061        53.17865         1.95622
O         40.94377        28.83820         1.74736
H         40.57659        29.63264         2.20374
O         48.98279        35.52448        -2.88809
H         48.17028        35.12109        -3.28317
O         36.95160        42.74544         1.34179
H         37.38611        41.92582         1.67262
O         58.08527        44.29914         0.50498
H         59.01024        44.61341         0.60371
O         38.53814        44.82680         0.55646
H         37.98500        45.44555         1.09332
O         44.61212        42.73509        -3.34102
H         44.28473        41.97425        -3.87656
O         44.65252        23.20991         1.90276
H         43.96641        22.99664         2.57063
O         56.44412        48.29959         0.75743
H         57.33524        47.97846         0.50712
O         56.94052        39.60413        -0.94479
H         56.97744        40.56987        -1.10972
O         54.43319        38.13758        -1.95386
H         53.72225        38.64751        -2.40826
O         33.08842        44.29422        -2.38769
H         32.26809        44.55419        -2.86015
O         57.85488        41.57822         4.03885
H         57.82881        40.59995         4.10206
O         40.16547        33.85608         1.23443
H         40.78188        33.35041         1.81002
O         43.09598        27.33120         1.25128
H         43.98150        27.72601         1.41889
O         43.30331        50.51090        -2.45775
H         44.06362        51.14399        -2.49398
O         50.33428        41.84498        -2.16203
H         51.08488        41.25578        -2.42553
O         30.10198        50.54261        -2.35725
H         29.40072        49.91270        -2.63389
O         48.95474        38.11577         1.45424
H         48.19774        38.69210         1.71335
O         39.07536        33.31494        -2.22973
H         39.78925        33.83311        -2.66147
O         57.88016        33.22234        -1.50640
H         57.09711        32.98185        -2.04526
O         46.91023        39.02311        -2.41125
H         46.87154        39.79957        -3.00820
O         30.48189        40.02786        -1.92915
H         29.76397        40.57332        -2.31857
O         36.98051        46.87041         0.69743
H         36.46900        47.60922         1.11721
O         43.49134        38.47396         0.64441
H         44.33904        38.70334         1.10577
O         45.13709        52.52766        -1.64730
H         44.90462        53.38676        -2.08094
O         34.36135        22.41632         2.74905
H         34.40625        23.35757         3.02273
O         28.42158        31.48768        -0.49393
H         27.66992        31.73177        -1.07491
O         40.88846        29.41819        -1.89435
H         41.05054        28.49213        -2.20943
O         50.34287        45.15500        -1.34849
H         50.50610        44.43020        -1.99078
O         24.80842        34.61837        -1.45055
H         24.71565        35.35616        -2.08917
H         22.01359        26.77192         1.02336
H         21.96127        29.21455         1.32456
H         22.29708        30.87768        -0.13865
H         22.29628        33.28307        -0.57548
H         22.10426        35.31847        -0.46260
H         22.10203        37.72479        -0.62728
H         22.10234        39.62243        -0.90478
H         22.09325        42.04898        -1.02966
H         22.20767        43.95278        -1.51324
H         22.19883        46.39377        -1.58005
H         25.39034        23.40395         1.26046
H         23.26243        24.65409         1.27575
H         25.43649        49.82533        -0.80580
H         23.38701        48.59659        -1.20857
H         27.13950        22.65348         1.95768
H         26.99541        50.78838         0.34491
H         29.24403        21.46145         1.98311
H         28.97106        52.12227        -0.18130
H         32.93822        19.16767         1.67871
H         30.87441        20.43714         1.82452
H         32.62924        54.31461         0.18223
H         30.63186        52.93490         0.26014
H         34.65350        18.25697         1.69362
H         34.53222        55.52038        -0.28061
H         36.82291        17.17830         2.07730
H         36.73739        56.53431        -0.42365
H         40.67654        15.10671         1.59597
H         38.50815        16.21542         1.60879
H         40.54356        58.52623        -0.63265
H         38.37805        57.39430        -0.92957
H         43.09044        15.14695         1.73854
H         42.96334        58.42568         0.02372
H         45.20441        16.31738         1.41322
H         44.96111        57.05460         0.60453
H         48.60501        18.20133        -0.41364
H         46.67177        17.16926         0.55782
H         48.01268        54.67894         2.75930
H         45.93054        55.92829         2.34365
H         49.93025        19.03862        -1.45497
H         49.78505        53.84207         2.53664
H         51.54911        20.07743        -3.02422
H         51.90946        52.65573         2.53936
H         56.25776        22.69612        -2.98236
H         54.19033        21.75436        -3.93173
H         55.72972        50.65420         2.33009
H         53.62766        51.82192         1.95876
H         57.86273        23.56108        -2.27773
H         57.36646        49.55523         3.23925
H         59.87265        24.77136        -1.59006
H         61.01729        26.79164        -0.84756
H         60.97031        29.16063        -0.19809
H         60.97617        31.08145        -0.29185
H         60.97801        33.38187         0.49391
H         60.85159        35.20491         1.60791
H         60.81461        37.63070         1.76864
H         60.77426        39.49676         2.06369
H         60.58908        41.75808         2.89847
H         60.25296        43.49036         3.88516
H         60.41493        45.95438         3.96315
H         59.25200        48.14627         3.87789
