         320
 CSIRO Nanostructure Databank - Neutral Graphene Oxide Data Set
C         30.65981        31.42288         1.42963
C         30.69320        32.65426         1.67386
C         30.43910        35.94645         1.26009
C         30.42193        37.18279         1.24481
C         30.42122        40.55159         1.44916
C         30.42492        41.76823         1.08538
C         32.63384        28.89709        -0.44003
C         31.65150        29.32943         0.18541
C         32.95288        30.91840         1.28849
C         31.59528        30.42377         1.10464
C         32.96590        33.15349         1.59905
C         31.69734        33.66577         1.46493
C         32.85603        35.89085         1.22586
C         31.55708        35.03590         0.85072
C         32.74565        37.35159         0.71696
C         31.52542        38.17771         1.47819
C         32.62885        40.27968         0.32000
C         31.39664        39.57729         0.90069
C         32.71663        41.77003        -0.06330
C         31.26018        42.70666         0.54593
C         32.63679        44.69226        -0.04363
C         31.64175        44.00837         0.36400
C         35.45030        27.23341        -0.76817
C         35.10804        28.44219         0.03595
C         34.04694        29.41996        -0.50823
C         35.22202        31.51036         0.39226
C         34.03456        30.64585         0.46389
C         35.25485        32.89625         0.44788
C         34.27502        33.78780         1.23418
C         35.24886        35.94080         0.43868
C         34.08507        35.18797         0.70764
C         35.27802        37.33662         0.45631
C         34.05877        38.14219         0.89717
C         35.20965        40.31816         0.52383
C         33.97164        39.51367         0.13188
C         35.22235        41.82657         0.53681
C         33.89565        42.62001         0.47963
C         35.29820        44.65607        -0.32893
C         33.95408        44.01367        -0.20108
C         35.64368        46.04685         0.00666
C         37.79274        27.38524        -1.46413
C         36.49628        26.66465        -1.09431
C         37.80226        28.52797        -0.39384
C         36.49112        29.23146         0.05302
C         37.77369        31.41696        -0.10242
C         36.49203        30.72192         0.25597
C         37.72614        32.89598        -0.36395
C         36.44034        33.65776        -0.08810
C         37.78597        35.87279         0.10915
C         36.45645        35.17069        -0.01458
C         37.85543        37.40414         0.25956
C         36.49288        38.09751        -0.03138
C         37.74120        40.31823         0.02845
C         36.55367        39.53130         0.58463
C         37.85664        41.76698         0.51618
C         36.52190        42.51999         0.28476
C         37.81872        44.46537        -0.51354
C         36.53704        43.81654        -0.11149
C         37.90768        46.53735         1.09307
C         36.60527        46.60950         0.55634
C         40.43367        24.88447        -2.45638
C         39.31995        25.44529        -2.39604
C         40.36729        27.49632        -1.64838
C         39.09621        26.55808        -1.37910
C         40.49647        28.52791        -0.48842
C         39.12326        29.20023        -0.12162
C         40.29512        31.47570        -0.27529
C         39.08524        30.68799         0.31778
C         40.18894        32.97162         0.16666
C         39.04099        33.67431        -0.63717
C         40.30083        35.91131        -0.67846
C         39.04088        35.14375        -0.22454
C         40.30354        37.38757        -0.33464
C         38.97880        38.05850        -0.63129
C         40.29541        40.25802        -0.32283
C         38.97648        39.57960        -0.42645
C         40.25161        41.73070        -0.66235
C         39.07442        42.47406        -0.06583
C         40.31582        44.63036        -0.24371
C         39.09989        43.86420        -0.08239
C         40.39420        46.08681         0.04325
C         39.19016        46.98661         0.51621
C         40.43039        48.93348        -0.21727
C         39.35850        48.40411         0.12842
C         43.06351        24.85108        -1.99412
C         41.75246        25.42091        -2.21988
C         43.05192        27.46113        -1.60765
C         41.70274        26.74326        -1.80177
C         42.93789        28.90430        -1.16564
C         41.64577        29.49915        -0.73365
C         42.82931        31.67071        -0.25823
C         41.63707        30.79157         0.08032
C         42.77286        32.99954        -0.01479
C         41.51306        33.75455         0.13562
C         42.85094        35.94290        -0.55735
C         41.55272        35.22084        -0.18105
C         42.77591        37.40465        -0.13223
C         41.49422        38.08209        -0.16145
C         42.78675        40.22878        -0.45022
C         41.45509        39.56336        -0.14774
C         42.83412        41.76478        -0.24227
C         41.53704        42.49595        -0.50105
C         42.79079        44.59455        -0.81149
C         41.52282        43.88817        -0.46612
C         42.92877        46.08467        -0.52681
C         41.55362        46.78859        -0.68666
C         43.00753        48.82859        -0.82681
C         41.82972        48.55171        -0.01788
C         44.09604        25.34608        -1.50685
C         45.26399        27.42666        -0.28925
C         44.02673        26.64688        -0.69446
C         45.32554        28.80215        -0.22165
C         44.23060        29.59917        -0.83710
C         45.28781        31.53098         0.41271
C         44.17077        31.04361        -0.49274
C         45.16004        33.02763         0.75252
C         44.07649        33.74533        -0.13237
C         45.13964        35.98608         0.58600
C         44.01259        35.23370         0.07497
C         45.18771        37.44499         0.40893
C         43.99754        38.10001         0.09108
C         45.28779        40.33206         0.12533
C         43.95002        39.59571         0.32158
C         45.30553        41.68820        -0.25959
C         44.10714        42.30583        -0.95876
C         45.34675        44.60186        -0.98831
C         44.07112        43.83996        -0.99689
C         45.34417        45.94041        -1.30151
C         44.05635        46.70898        -1.47199
C         44.02849        48.17270        -1.09471
C         47.16497        27.38398         1.22860
C         46.31310        26.84523         0.52115
C         47.33214        28.82536         1.63898
C         46.22679        29.60942         0.73069
C         47.71801        31.63558         0.91404
C         46.69611        30.99035         0.27883
C         47.66965        33.11172         1.26281
C         46.50967        33.78249         0.52669
C         47.66283        36.00911         1.34461
C         46.39498        35.22705         1.02788
C         47.67052        37.47137         1.03360
C         46.53268        38.13559         0.26017
C         47.74069        40.43375         0.77517
C         46.47685        39.63716         0.45495
C         47.83966        41.63348        -0.20079
C         46.54697        42.53301        -0.05880
C         47.96503        44.62671        -0.59171
C         46.62282        43.76929        -0.98627
C         47.76899        45.82585        -1.52035
C         46.68488        46.44764        -1.48973
C         49.98723        28.83868         1.81359
C         48.71797        29.37099         1.21721
C         50.18874        31.59481         1.45575
C         48.82840        30.89595         1.62354
C         50.23425        33.01276         1.36719
C         49.01214        33.85434         0.99114
C         50.23448        36.00616         1.19420
C         48.98799        35.26154         1.67235
C         50.21134        37.27654         0.71739
C         49.01427        38.14314         0.96002
C         50.35099        40.28316         0.38956
C         49.06432        39.63733         0.82189
C         50.39179        41.53396        -0.13370
C         49.15045        42.43768         0.02717
C         50.55251        44.29216        -0.51151
C         49.18735        43.74442        -0.85289
C         51.09521        29.40094         1.77915
C         52.56281        31.57172         1.67886
C         51.37661        30.81657         1.68483
C         52.51962        32.83678         1.57850
C         51.46415        33.73014         1.40421
C         52.55281        35.94705         0.70228
C         51.54958        35.23342         1.53192
C         52.55803        37.06501         0.19776
C         51.39564        38.00044         0.03279
C         52.73735        40.16652         0.13153
C         51.60937        39.37109         0.69778
C         52.83597        41.36362        -0.15065
C         51.72252        42.17906        -0.72976
C         51.60185        43.64974        -0.43316
O         36.17344        34.50037        -1.28591
O         45.40895        35.49025         2.00735
O         38.03009        40.20892        -1.37787
O         43.23074        44.24573        -2.16010
O         44.59409        30.63422        -1.82193
O         42.10704        29.67203        -2.10390
O         38.63625        35.26989         1.16347
O         37.60380        31.91269        -1.46413
O         38.51514        28.27110         0.84127
O         36.65034        29.80016         1.38711
O         34.56068        44.21858        -1.49206
O         47.36170        37.01546         2.37500
O         49.20331        39.00718         2.14424
O         31.57797        39.67824        -0.52568
O         37.84600        45.35505        -1.36243
O         33.12334        31.91891         2.27227
O         41.54605        34.78373         1.20061
O         45.20160        30.46064         1.54447
O         40.26498        46.56056         1.45171
O         35.12199        41.04589         1.77633
O         40.02449        41.73630        -2.13501
H         39.82119        42.66096        -2.39584
O         39.17347        25.97322        -0.09351
H         38.30690        25.56274         0.11485
O         38.00477        45.88125         2.24027
H         38.96962        45.84012         2.48140
O         38.27239        37.66481         1.60139
H         38.77000        36.87259         1.91666
O         51.75725        39.19535         2.08388
H         51.98402        40.05226         2.49759
O         46.75452        43.31009        -2.33942
H         46.62742        44.07537        -2.93882
O         44.77249        33.11684         2.13214
H         44.24179        32.32242         2.35911
O         44.20284        41.89998        -2.33241
H         43.67457        42.53998        -2.86243
O         34.73772        28.10757         1.35157
H         35.46319        27.60683         1.77686
O         40.23192        31.32151        -1.69186
H         39.44241        31.79643        -2.05399
O         40.94903        27.83195         0.68059
H         40.28671        27.13427         0.90159
O         47.92562        45.09475         0.71435
H         48.54564        44.56286         1.27301
O         44.42021        33.61307        -1.55786
H         43.89962        34.31205        -2.04516
O         34.96209        33.94138         2.55132
H         34.90543        33.06600         2.99954
O         49.20326        42.90028         1.39302
H         48.67842        42.27815         1.96165
O         43.64347        39.70498         1.74046
H         44.30453        39.17758         2.23763
O         34.44694        29.80698        -1.80249
H         33.76882        30.38875        -2.20128
O         49.20103        34.16609        -0.39715
H         49.05682        33.36188        -0.93826
O         43.37543        46.16706         0.82441
H         43.43113        47.11178         1.10128
O         40.08930        28.17284        -2.87707
H         40.78756        28.86597        -2.99989
O         32.67560        41.87993        -1.43597
H         32.10831        41.16319        -1.79803
O         32.47578        37.32341        -0.68170
H         31.96348        36.50598        -0.90891
O         34.23466        38.46840         2.29720
H         34.02429        37.65168         2.81121
O         51.80598        35.51083         2.91372
H         50.98553        35.27912         3.41222
O         51.68690        42.00264        -2.12097
H         52.47760        42.41987        -2.51886
O         46.43811        43.07501         1.27041
H         46.17550        42.35723         1.88798
O         34.03889        39.31190        -1.29023
H         33.31287        38.66835        -1.50707
O         38.75576        37.81992        -2.03882
H         38.06374        38.46630        -2.32967
O         46.86849        33.76558        -0.85318
H         46.06621        33.83418        -1.43107
O         48.59636        30.93018         3.03978
H         48.34564        31.85468         3.28780
O         36.80566        39.41989         1.99831
H         35.99532        39.03009         2.41500
O         47.87978        41.03390        -1.49360
H         47.96217        41.74729        -2.17145
O         39.76964        32.96842         1.53283
H         40.09608        33.79999         1.94993
O         46.92855        37.94921        -1.14032
H         46.38858        38.54622        -1.70296
O         43.12502        42.07515         1.14907
H         42.48696        41.59947         1.72304
O         33.59387        42.97677         1.84352
H         33.88690        42.24173         2.43103
O         48.77386        29.22329        -0.19211
H         49.69445        29.35820        -0.49798
O         42.15236        48.54218         1.32884
H         41.39539        48.16454         1.83401
O         47.41220        33.23281         2.67700
H         46.43811        33.11140         2.82384
O         32.95575        35.93928         2.68032
H         33.61621        35.25541         2.96236
O         31.51406        34.85905        -0.57699
H         30.67046        34.41511        -0.80627
O         49.07943        35.12016         3.09738
H         48.59029        35.87727         3.49469
O         43.70079        27.52023        -2.89538
H         43.28312        28.24184        -3.41257
O         41.77667        30.50788         1.47649
H         40.87467        30.46620         1.88859
O         40.38499        35.83130        -2.12902
H         39.76614        36.51486        -2.49897
O         43.65799        46.63120        -2.84726
H         44.36411        47.03310        -3.39517
O         37.61033        27.97770        -2.72117
H         37.98184        27.39147        -3.41396
O         43.37968        26.34874         0.52958
H         44.02264        25.91686         1.13044
O         49.24756        43.37820        -2.22104
H         49.21836        44.19681        -2.76053
O         47.55259        40.92233         2.13750
H         47.91327        40.20852         2.72466
O         51.03937        38.20359        -1.32544
H         51.73556        38.74279        -1.75618
O         39.28037        33.63087        -2.04799
H         38.45732        33.90116        -2.50759
O         41.16544        46.90550        -2.00695
H         41.95568        46.96429        -2.60085
O         36.38359        38.16248        -1.46772
H         35.49685        38.54361        -1.69526
O         39.13282        30.66782         1.75015
H         38.50135        29.96407         2.04118
O         31.73780        38.32260         2.85576
H         31.79388        37.42869         3.26318
O         47.06306        29.01182         2.98979
H         46.12894        28.78599         3.17064
O         42.98934        39.87447        -1.83275
H         42.25673        40.25594        -2.36179
O         43.02430        35.86705        -2.01905
H         42.11875        35.96414        -2.42099
O         38.05657        41.77450         1.94960
H         37.52740        41.01991         2.32394
