         620
 CSIRO Nanostructure Databank - Neutral Graphene Oxide Data Set
C         22.90726        27.60355        -0.86787
C         22.93982        28.95145        -0.69094
C         22.94762        31.83097         0.06577
C         22.96406        33.20799         0.27248
C         22.98594        36.13442         0.66479
C         23.00112        37.48724         0.93545
C         23.06470        40.21723         1.96995
C         23.13612        41.47874         2.53355
C         23.12229        45.09650         2.20663
C         23.05516        46.21395         1.39513
C         25.37583        24.71890        -0.77707
C         24.19321        25.37839        -0.89357
C         25.36174        27.51904        -0.14787
C         24.04347        26.77086        -0.45940
C         25.38188        28.98280        -0.30767
C         24.15413        29.68119        -0.38086
C         25.35564        31.88684        -0.40632
C         24.11617        31.11277        -0.24189
C         25.39450        33.29742         0.02697
C         24.17081        33.96664         0.28528
C         25.43395        36.06840         0.71516
C         24.18670        35.38654         0.55938
C         25.44759        37.49290         0.98430
C         24.21962        38.19426         1.11360
C         25.46632        40.32341         1.46822
C         24.23859        39.59158         1.48784
C         25.50507        41.69914         1.86122
C         24.35462        42.17725         2.51268
C         25.50209        44.73984         1.59439
C         24.34143        44.40329         2.31583
C         25.46935        46.00509         0.91452
C         24.23672        46.70769         0.78694
C         25.35979        48.55402        -0.33233
C         24.20293        47.95204         0.08447
C         27.88852        23.21352        -0.50613
C         27.88009        24.62340        -0.36143
C         26.61392        25.37158        -0.38356
C         27.85494        27.48824         0.04402
C         26.61075        26.74364        -0.20658
C         27.84477        28.93659        -0.24485
C         26.65500        29.64732        -0.36611
C         27.90165        31.86714        -0.18412
C         26.67465        31.12424        -0.53371
C         27.87988        33.22274         0.07054
C         26.63445        33.96599         0.19303
C         27.90537        35.98647         0.97740
C         26.64343        35.33450         0.58322
C         27.92448        37.48362         1.25670
C         26.66757        38.22709         1.10597
C         27.94794        40.36203         1.30839
C         26.69551        39.62966         1.22841
C         27.95600        41.75282         1.47418
C         26.72523        42.49931         1.68235
C         27.96348        44.66276         1.32752
C         26.70059        43.90810         1.57708
C         27.92813        45.98536         0.65986
C         26.67695        46.62960         0.44649
C         27.85616        48.65797        -0.32472
C         26.63103        47.94431        -0.09634
C         27.85821        50.03754        -0.69430
C         30.32787        23.14956        -0.42147
C         29.07120        22.50248        -0.51841
C         30.35644        24.56734        -0.30200
C         29.12452        25.27999        -0.22797
C         30.43461        27.46622        -0.15640
C         29.16325        26.72933         0.04958
C         30.41652        28.83728        -0.24997
C         29.14559        29.59753        -0.43005
C         30.41063        31.69719         0.28084
C         29.16639        31.11104        -0.34119
C         30.44366        33.19931         0.16823
C         29.16654        33.96591         0.16826
C         30.37348        36.02570         0.91998
C         29.19303        35.35078         0.68342
C         30.41352        37.46628         1.07355
C         29.19982        38.21058         1.14734
C         30.44786        40.30420         1.04800
C         29.19724        39.61585         1.18265
C         30.47455        41.71851         1.06334
C         29.30218        42.44048         1.69558
C         30.45381        44.57826         0.73678
C         29.28354        43.93876         1.38067
C         30.39687        45.94440         0.38403
C         29.13065        46.64251         0.33053
C         30.32265        48.72202        -0.35387
C         29.10061        48.00512        -0.12511
C         30.29807        50.11385        -0.67011
C         29.02629        50.74355        -0.82994
C         32.76932        20.27687        -0.47288
C         31.57824        20.97927        -0.50257
C         32.79830        23.07234        -0.23123
C         31.56064        22.38951        -0.39216
C         32.81825        24.51017        -0.25607
C         31.63345        25.26032        -0.27126
C         32.89858        27.40654        -0.22043
C         31.67985        26.71601        -0.23729
C         32.95455        28.83734        -0.10919
C         31.69825        29.56854        -0.36529
C         32.96467        31.74120         0.17692
C         31.70891        31.06660        -0.19571
C         32.94832        33.10825         0.52722
C         31.66844        33.80944         0.76514
C         32.93234        35.99272         1.04258
C         31.64846        35.27870         1.05686
C         32.91836        37.42198         0.96542
C         31.65854        38.14093         0.97912
C         32.87797        40.26150         0.60741
C         31.66557        39.56563         0.87876
C         32.85988        41.66937         0.44944
C         31.65535        42.40180         0.71183
C         32.82571        44.49826         0.10774
C         31.64823        43.83777         0.54493
C         32.81333        45.91514        -0.10056
C         31.59429        46.62740        -0.00393
C         32.77896        48.73779        -0.55093
C         31.57060        48.03607        -0.28745
C         32.76207        50.13822        -0.83998
C         31.52146        50.83177        -0.86337
C         32.66243        52.91881        -1.44838
C         31.53151        52.25665        -1.09601
C         35.34781        18.92100        -1.07008
C         35.26178        20.13026        -0.24164
C         34.00299        20.93412        -0.26087
C         35.25835        23.04254         0.27565
C         34.01189        22.32836        -0.10252
C         35.35493        24.47862         0.01918
C         34.13249        25.17408        -0.39513
C         35.44018        27.35895        -0.03436
C         34.17555        26.69599        -0.38914
C         35.41430        28.79917         0.20490
C         34.14605        29.51936         0.14198
C         35.38062        31.64996         0.49095
C         34.18832        30.97901         0.23593
C         35.41428        33.14360         0.27222
C         34.13925        33.83934         0.69626
C         35.40673        35.94506         1.07951
C         34.12338        35.23820         0.94467
C         35.41254        37.46963         0.98596
C         34.12132        38.14309         0.80348
C         35.32693        40.19323         0.16369
C         34.12455        39.53637         0.50890
C         35.29705        41.60498        -0.13607
C         34.05780        42.35584         0.05419
C         35.20307        44.45786        -0.61981
C         34.01377        43.74188        -0.14229
C         35.25564        45.92897        -0.48771
C         34.03092        46.62730        -0.38666
C         35.24810        48.73862        -0.78095
C         34.02521        48.03925        -0.56101
C         35.23090        50.14921        -1.05267
C         33.99262        50.81141        -1.15134
C         35.27832        52.96937        -1.76186
C         33.93143        52.20250        -1.62430
C         35.29142        54.44021        -1.60546
C         37.81182        18.92191        -0.96977
C         36.54123        18.32115        -1.31327
C         37.84066        20.22424        -0.44783
C         36.59302        20.81625         0.06705
C         37.83333        23.04512         0.24172
C         36.58499        22.27790         0.37527
C         37.79561        24.42903         0.37885
C         36.56360        25.15806         0.19953
C         37.88153        27.29678         0.32782
C         36.60364        26.61254         0.13217
C         37.88288        28.77922         0.02643
C         36.59902        29.46544         0.42764
C         37.89521        31.61515         0.63482
C         36.60952        30.88733         0.91468
C         37.92122        33.07471         0.99317
C         36.65698        33.84116         0.73356
C         37.87284        35.99215         0.70571
C         36.67230        35.22926         0.81525
C         37.87547        37.41096         0.55425
C         36.65394        38.13968         0.57620
C         37.79923        40.13234        -0.26387
C         36.60146        39.48924         0.14048
C         37.69332        41.47324        -0.95316
C         36.46545        42.23978        -0.52564
C         37.76255        44.38130        -0.57422
C         36.46817        43.67518        -0.80951
C         37.74512        45.88037        -0.49705
C         36.46876        46.62074        -0.61270
C         37.73421        48.74766        -0.82937
C         36.48278        48.03227        -0.74766
C         37.74501        50.15295        -0.97522
C         36.48850        50.86712        -1.17039
C         37.78630        52.96738        -1.54250
C         36.50572        52.23583        -1.41652
C         37.75259        54.48829        -1.66507
C         36.43625        55.13813        -1.48185
C         40.26480        16.23352        -1.94267
C         39.07396        16.88906        -1.70206
C         40.28067        18.93932        -1.11167
C         39.04954        18.24526        -1.28044
C         40.29115        20.31120        -0.70265
C         39.06601        20.97174        -0.37017
C         40.30824        23.08733        -0.01015
C         39.07776        22.35009        -0.00424
C         40.32840        24.47961         0.27668
C         39.06136        25.13502         0.80376
C         40.32690        27.34434         0.91320
C         39.03892        26.62575         0.58113
C         40.32433        28.81675         0.58355
C         39.13671        29.50009         0.44063
C         40.36624        31.66218         0.53072
C         39.10049        30.94475         0.49948
C         40.38796        33.06733         0.45409
C         39.10108        33.77413         0.36985
C         40.37601        35.97612         0.31247
C         39.09543        35.26823         0.33246
C         40.35393        37.39239         0.21070
C         39.09912        38.09352         0.21978
C         40.28636        40.13121        -0.51303
C         39.05439        39.45987        -0.18659
C         40.22086        41.43953        -1.28487
C         38.99192        42.26624        -0.94738
C         40.21771        44.44401        -0.94306
C         39.01986        43.64969        -0.87984
C         40.21959        45.85228        -0.75842
C         39.00560        46.60297        -0.67727
C         40.19022        48.74915        -0.64288
C         38.97695        48.02592        -0.73702
C         40.20772        50.16180        -0.68957
C         38.98667        50.86841        -0.92402
C         40.21863        52.99917        -0.90739
C         39.03338        52.29060        -1.11153
C         40.30194        54.46547        -1.10619
C         39.02934        55.26363        -1.45042
C         40.16732        57.30935        -0.69256
C         39.01835        56.67743        -1.04779
C         42.74375        16.22565        -1.98937
C         41.50410        16.89887        -1.77153
C         42.76017        18.93637        -1.17909
C         41.51509        18.26173        -1.36258
C         42.76242        20.31739        -0.82022
C         41.52792        21.01163        -0.60673
C         42.77574        23.10583        -0.22449
C         41.54010        22.40286        -0.28873
C         42.78884        24.51775        -0.00522
C         41.54318        25.20743         0.23791
C         42.78047        27.33844         0.39809
C         41.57531        26.62440         0.45261
C         42.79995        28.78375         0.52064
C         41.58594        29.51144         0.60666
C         42.82524        31.65300         0.51029
C         41.59876        30.94318         0.55846
C         42.82859        33.08912         0.38634
C         41.58791        33.79986         0.35527
C         42.80895        35.94474         0.08966
C         41.58032        35.24163         0.26553
C         42.81780        37.36636        -0.03650
C         41.57394        38.09828         0.01132
C         42.78705        40.23556        -0.41356
C         41.51230        39.48825        -0.31984
C         42.78260        41.61474        -0.92934
C         41.51686        42.24886        -1.27949
C         42.75899        44.47848        -0.91507
C         41.50007        43.78156        -1.21132
C         42.71073        45.88929        -0.66496
C         41.47162        46.55319        -0.65036
C         42.71913        48.75605        -0.27134
C         41.42110        47.99392        -0.35827
C         42.69739        50.21898        -0.45281
C         41.44777        50.88918        -0.55526
C         42.64658        53.01346        -0.30894
C         41.43960        52.31061        -0.57300
C         42.56925        54.45303         0.11265
C         41.41896        55.19837        -0.50883
C         42.59706        57.28957        -0.08310
C         41.39996        56.58833        -0.45352
C         43.93929        16.86205        -1.77344
C         45.22491        18.88367        -1.05670
C         43.99126        18.22882        -1.35002
C         45.22693        20.26700        -0.70305
C         43.99770        20.99667        -0.64070
C         45.25204        23.07305        -0.20327
C         44.01243        22.39413        -0.35392
C         45.27000        24.50317        -0.09031
C         44.01972        25.22107        -0.00245
C         45.23911        27.36424         0.12869
C         44.02912        26.64918         0.16722
C         45.26909        28.78029         0.27959
C         44.03770        29.48980         0.43639
C         45.29124        31.60310         0.36926
C         44.05759        30.91875         0.46694
C         45.34056        33.10513         0.47490
C         44.03096        33.79931         0.22127
C         45.21245        35.87700        -0.44331
C         44.02691        35.20453        -0.02962
C         45.23644        37.28406        -0.55093
C         44.05367        38.01649        -0.30091
C         45.33272        40.14073        -0.88532
C         44.10442        39.48289        -0.37304
C         45.25213        41.60333        -1.08967
C         43.96833        42.33427        -0.97615
C         45.21728        44.49200        -0.74433
C         43.97480        43.77752        -0.96959
C         45.19193        45.90243        -0.52015
C         43.95675        46.61113        -0.51274
C         45.19580        48.73470        -0.40190
C         43.98199        48.02140        -0.43328
C         45.20924        50.21706        -0.68511
C         43.90148        50.92710        -0.43645
C         45.12921        53.06005        -0.06184
C         43.88316        52.33974        -0.28329
C         45.10525        54.47948         0.08141
C         43.87355        55.20422         0.02691
C         43.80041        56.61537         0.06424
C         47.62326        18.72943        -0.58872
C         46.47958        18.17242        -1.06571
C         47.63862        20.11507        -0.11219
C         46.44047        20.92823        -0.35628
C         47.73262        23.02927        -0.04803
C         46.47607        22.33146        -0.17832
C         47.73898        24.47189        -0.03384
C         46.50253        25.18714        -0.06207
C         47.74455        27.38695         0.17514
C         46.50672        26.67566        -0.30403
C         47.76629        28.76664         0.25250
C         46.50843        29.49293         0.22582
C         47.77245        31.64476         0.10768
C         46.50992        30.90635         0.24100
C         47.74791        32.97569        -0.25449
C         46.43141        33.62985        -0.42464
C         47.61474        35.73562        -1.31624
C         46.36023        35.04421        -0.87716
C         47.43067        37.17174        -1.57092
C         46.44130        37.97131        -1.03677
C         47.83115        40.22835        -1.37879
C         46.49852        39.44119        -1.10189
C         47.77902        41.62572        -0.76650
C         46.54697        42.38977        -1.00340
C         47.60546        44.48134        -0.18520
C         46.44987        43.81515        -0.64565
C         47.61494        45.88762        -0.06111
C         46.40827        46.61077        -0.28096
C         47.64602        48.76180        -0.02982
C         46.41105        48.04043        -0.24851
C         47.61653        50.21315         0.03586
C         46.41670        50.92519        -0.12665
C         47.58713        53.05837         0.27149
C         46.36898        52.34749         0.02423
C         47.53230        54.47875         0.38450
C         46.34704        55.16071         0.28217
C         50.26258        20.18856        -0.09611
C         48.97740        20.86499         0.11812
C         50.20055        23.03445         0.03468
C         48.95585        22.33273         0.00364
C         50.21411        24.47099         0.08605
C         48.97131        25.16382         0.06759
C         50.27171        27.35441         0.46598
C         48.96301        26.60769         0.37892
C         50.25849        28.81753         0.30319
C         49.02607        29.50500         0.31223
C         50.25907        31.61545         0.08209
C         49.02902        30.92615         0.21214
C         50.27697        33.09317        -0.00774
C         48.96654        33.81329        -0.24253
C         50.27021        35.94138        -0.78600
C         48.99437        35.14889        -0.95274
C         50.33027        37.33942        -0.85585
C         49.28680        38.23410        -1.33806
C         50.11069        40.07726         0.03491
C         49.07049        39.49155        -0.89313
C         50.12472        41.58442         0.02055
C         48.87710        42.25455        -0.19642
C         50.04177        44.43289         0.60077
C         48.77435        43.67895         0.21892
C         50.01149        45.90529         0.49951
C         48.84267        46.60318         0.22502
C         50.07895        48.77732         0.37756
C         48.83730        48.05822         0.19839
C         50.07444        50.21286         0.38675
C         48.84317        50.92463         0.28002
C         50.07095        53.02364         0.55276
C         48.82706        52.34656         0.36760
C         51.42004        20.89362        -0.06730
C         52.61028        23.01906         0.51756
C         51.42520        22.32524         0.12798
C         52.63593        24.45897         0.53039
C         51.45464        25.15967         0.22143
C         52.77469        27.34922         0.46085
C         51.51845        26.64324        -0.01039
C         52.76349        28.76130         0.30601
C         51.49758        29.49304         0.14359
C         52.73114        31.63283        -0.26169
C         51.47496        30.90075         0.00017
C         52.75153        33.11131        -0.26746
C         51.53241        33.81272        -0.31954
C         52.75068        35.92813        -0.53963
C         51.49805        35.22416        -0.50767
C         52.74607        37.34095        -0.57898
C         51.53230        38.05521        -0.54644
C         52.63437        40.19286        -0.02480
C         51.47299        39.45731        -0.24956
C         52.58486        41.59581         0.27033
C         51.32015        42.29078         0.28061
C         52.54115        44.40551         0.59259
C         51.33375        43.71544         0.48226
C         52.55685        45.86435         0.85529
C         51.25272        46.63420         0.78619
C         52.54540        48.76823         0.58576
C         51.29011        48.08632         0.55579
C         52.54524        50.19854         0.58619
C         51.30650        50.91570         0.54344
C         51.25831        52.34050         0.62591
C         54.70747        22.96796         1.70964
C         53.71741        22.29266         1.03464
C         54.70435        24.38286         1.73478
C         53.80589        25.17099         1.01006
C         55.16809        27.36981         1.00166
C         53.93258        26.63747         0.85972
C         55.17276        28.76210         0.71732
C         53.98948        29.46441         0.40696
C         55.22610        31.71932         0.24925
C         54.04023        30.89360         0.00218
C         55.23492        33.08894        -0.04537
C         53.99678        33.79630        -0.29921
C         55.24540        35.91917        -0.45699
C         54.00708        35.21836        -0.43511
C         55.27372        37.37174        -0.70970
C         53.98148        38.10948        -0.71712
C         55.18776        40.19521         0.18535
C         53.95090        39.58878        -0.34448
C         55.04603        41.56598         0.71369
C         53.79481        42.31021         0.43776
C         55.03775        44.45264         0.60949
C         53.79209        43.71400         0.57604
C         54.99412        45.88638         0.44467
C         53.80776        46.60478         0.58186
C         55.02699        48.76367         0.45529
C         53.78210        48.04165         0.54447
C         54.98745        50.19391         0.57639
C         53.80345        50.87711         0.63559
C         57.88978        24.79360         1.83459
C         56.67310        25.51337         1.85674
C         57.69774        27.41298         0.82573
C         56.48601        26.74847         1.23216
C         57.72111        28.82575         0.66087
C         56.43867        29.53814         0.88399
C         57.73620        31.76581         0.60130
C         56.43237        31.04287         0.75694
C         57.71488        33.16660         0.15896
C         56.47645        33.83956        -0.02250
C         57.72456        35.97803        -0.16330
C         56.47695        35.24411        -0.25401
C         57.74849        37.39520        -0.09658
C         56.53067        38.16383        -0.40592
C         57.65695        40.21018         0.46590
C         56.42431        39.56180         0.09027
C         57.63722        41.54864         1.20669
C         56.31624        42.34479         1.04601
C         57.50465        44.54120         0.59635
C         56.27629        43.78649         0.72247
C         57.50030        45.89565         0.38945
C         56.23587        46.60122        -0.00986
C         57.50103        48.75202         0.07267
C         56.24435        48.08028         0.26763
C         58.98866        25.34050         1.20824
C         60.10401        27.35383         0.32778
C         58.92646        26.68647         0.75595
C         60.09979        28.71687         0.13187
C         58.92634        29.48224         0.36243
C         60.14225        31.69195        -0.21591
C         59.02357        30.96541         0.39766
C         60.13515        33.05252        -0.26716
C         58.94507        33.83135        -0.02380
C         60.16373        36.00273         0.06483
C         58.95688        35.26845        -0.07207
C         60.15859        37.37763         0.18573
C         58.94358        38.11039         0.11758
C         60.11526        40.30799         0.45676
C         58.87981        39.55078         0.33416
C         60.13315        41.63788         0.68843
C         58.89510        42.38805         0.98330
C         59.96238        44.56532         0.05107
C         58.82969        43.86322         0.72192
C         59.93071        45.89759        -0.08573
C         58.79274        46.66756         0.54663
C         58.68967        48.09390         0.09063
O         55.41747        41.88519         2.10346
O         48.20368        20.30880         1.23251
O         49.65556        26.87292         1.68198
O         43.57566        40.13773         0.83964
O         30.00298        33.79143        -1.07207
O         59.10670        43.36545         2.08214
O         58.65185        31.52653         1.70451
O         28.51390        27.11511         1.31873
O         56.33314        30.40253         2.07781
O         35.82084        22.62222         1.56450
O         28.82568        44.71102         2.54842
O         29.23784        30.46742        -1.62987
O         48.43654        35.03723        -2.29512
O         24.41096        43.36655         3.25851
O         51.86869        46.25219         2.08635
O         49.14239        43.88406         1.62573
O         37.84289        53.64998        -2.85138
O         53.50915        31.06995        -1.37005
O         56.13311        37.85000        -1.79250
O         27.86411        36.51339         2.35818
O         37.77956        45.02427         0.74249
O         34.56612        52.44970        -2.92512
O         25.99859        31.63783        -1.71839
O         31.51453        34.25544         2.15274
O         24.46891        27.03847         0.91025
O         40.01517        54.94221        -2.46873
O         38.86555        34.42573        -0.90313
O         45.94177        42.06839        -2.31682
O         34.25727        25.93498        -1.64985
O         49.57438        33.80292         1.08883
O         41.58079        43.05473        -2.50532
O         35.90766        20.00002         1.06505
O         53.96587        39.14289        -1.74552
O         45.98461        33.92876        -1.77692
O         31.75238        30.49103        -1.52767
O         55.63186        24.95977         2.60825
O         35.68252        44.06592        -1.98174
O         48.44149        37.72955        -2.33993
O         35.50806        36.76774         2.28154
O         42.00976        48.34697         0.95734
O         40.40972        27.31531         2.39786
H         41.27131        27.71230         2.65068
O         37.90553        28.87155        -1.44687
H         37.08581        28.44759        -1.78196
O         35.45270        33.32348        -1.20585
H         34.70738        32.80382        -1.57922
O         57.71394        41.13365         2.59426
H         57.89925        41.94074         3.12346
O         49.74477        39.68171         1.40352
H         50.27328        40.22419         2.02678
O         39.10540        24.92709         2.25873
H         39.64663        25.66070         2.64210
O         47.96842        40.39195        -2.80714
H         47.20656        40.94541        -3.10641
O         40.06222        40.99226        -2.68239
H         40.39650        41.73541        -3.24087
O         30.30061        31.39776         1.70230
H         30.80575        32.06876         2.21330
O         38.14460        33.12443         2.44538
H         37.56375        32.43158         2.84485
O         42.25780        54.39502         1.57197
H         42.31696        55.31459         1.91062
O         36.54475        30.81988         2.41450
H         35.69917        30.37895         2.64947
O         59.07636        46.72852         1.98260
H         59.17770        45.80591         2.30461
O         29.54739        42.31262         3.12917
H         29.17080        43.12427         3.54631
O         45.37510        50.30378        -2.15674
H         46.25185        49.92113        -2.37507
O         51.49393        26.82356        -1.46890
H         52.32206        26.44816        -1.83508
O         37.41735        41.14878        -2.36301
H         38.28650        40.87984        -2.76227
O         45.74406        33.44569         1.84096
H         45.08814        33.05789         2.45743
O         56.21184        46.50067        -1.50221
H         55.43401        47.01327        -1.81127
O         46.53989        26.81111        -1.78397
H         45.69278        26.45439        -2.12764
H         22.01336        27.11678        -1.28499
H         22.04460        29.53872        -0.94092
H         21.99195        31.29714         0.16516
H         22.01118        33.70433         0.49882
H         22.01683        35.63916         0.51925
H         22.04309        38.02066         0.99329
H         22.11341        39.67105         2.00024
H         22.26505        41.92800         3.02734
H         22.25112        44.75152         2.77817
H         22.11520        46.77207         1.28278
H         25.41381        23.66856        -1.09598
H         23.32319        24.87306        -1.33900
H         25.30295        49.52917        -0.83299
H         23.23247        48.44522        -0.06964
H         26.94454        22.65854        -0.57831
H         26.90705        50.56397        -0.84667
H         29.02085        21.40910        -0.60064
H         28.96980        51.80711        -1.09604
H         32.74572        19.18298        -0.56830
H         30.64234        20.41887        -0.62356
H         32.61305        53.98954        -1.68905
H         30.59458        52.82340        -1.01129
H         34.43153        18.50050        -1.50815
H         34.33122        54.97287        -1.55691
H         36.54413        17.39559        -1.90479
H         36.39436        56.22274        -1.30569
H         40.26055        15.17975        -2.25634
H         38.13446        16.33371        -1.82111
H         40.15347        58.38726        -0.47331
H         38.07499        57.24082        -1.07898
H         42.72765        15.17644        -2.31811
H         42.57607        58.38753        -0.03692
H         44.87127        16.30539        -1.93803
H         44.71660        57.21156         0.17788
H         48.53754        18.12498        -0.51505
H         46.50395        17.12574        -1.39715
H         48.45163        55.05162         0.56227
H         46.35874        56.25359         0.38538
H         50.28670        19.09408        -0.18671
H         50.09332        54.11838         0.62986
H         52.37498        20.36215        -0.18168
H         52.18428        52.91389         0.76312
H         55.49726        22.42937         2.24896
H         53.71940        21.19533         1.02024
H         55.92843        50.75896         0.60019
H         53.83235        51.97273         0.69770
H         57.93405        23.80370         2.30688
H         57.50224        49.83516        -0.12276
H         59.93818        24.79074         1.14732
H         61.03712        26.78172         0.22684
H         61.03664        29.22314        -0.13522
H         61.01355        31.13940        -0.59381
H         61.02524        33.57269        -0.64895
H         61.11868        35.46499         0.13956
H         61.11371        37.89389         0.34691
H         61.07022        39.79246         0.29088
H         61.08921        42.17650         0.74453
H         60.80349        43.97434        -0.33979
H         60.74982        46.43987        -0.58177
H         59.62539        48.64510        -0.08530
