         762
 CSIRO Nanostructure Databank - Neutral Graphene Oxide Data Set
C         22.90946        24.56034         1.05166
C         21.71440        25.30838         1.15878
C         22.84184        27.41046         0.60468
C         21.68924        26.68896         0.95916
C         22.84043        28.86054         0.47263
C         21.63765        29.60353         0.54254
C         22.78448        31.76925         0.48143
C         21.63707        31.01827         0.62610
C         22.83102        33.22731         0.77691
C         21.62021        34.07721         0.69934
C         22.98025        36.10451         1.15146
C         21.68876        35.39706         0.95608
C         23.02110        37.62974         1.18273
C         21.76822        38.41335         1.20730
C         22.90952        40.46315         0.48208
C         21.72693        39.72615         0.88884
C         22.84397        41.78037         0.10303
C         21.61425        42.56208         0.12203
C         22.92845        44.62308         0.49401
C         21.64857        43.90237         0.29012
C         22.95107        46.10869         0.75264
C         21.74317        46.95510         0.88481
C         23.19127        48.88266         1.35740
C         21.89299        48.26620         1.19418
C         25.43710        23.20898        -0.18771
C         25.35363        24.39729         0.55952
C         24.11262        25.17803         0.76645
C         25.36128        27.47600         0.45057
C         24.09821        26.63871         0.46969
C         25.30515        28.94746         0.37657
C         24.06057        29.60232         0.34379
C         25.32534        31.80185         0.36367
C         24.03909        31.07709         0.00842
C         25.38907        33.17378         0.41723
C         24.15939        33.94420         0.71309
C         25.34769        36.10310         0.33170
C         24.20087        35.42295         0.66456
C         25.37176        37.56524         0.32751
C         24.23724        38.28631         0.67258
C         25.39837        40.43645         0.02797
C         24.24846        39.79699         0.75758
C         25.33056        41.73864        -0.36932
C         24.03140        42.50480        -0.48648
C         25.33999        44.61690        -0.13884
C         24.16200        43.94844        -0.01227
C         25.42825        46.09216         0.08154
C         24.21273        46.86583         0.45303
C         25.68381        48.84480         1.09705
C         24.35049        48.23282         1.02432
C         25.82653        50.17005         1.55221
C         27.88252        23.15622         0.08038
C         26.67685        22.57861        -0.36024
C         27.84825        24.41284         0.74152
C         26.57183        24.88358         1.07953
C         27.83272        27.48178         0.67867
C         26.62033        26.98928         1.05242
C         27.80623        28.85757         0.12963
C         26.53889        29.60122         0.29216
C         27.90094        31.79578         0.50714
C         26.56295        31.04276         0.50314
C         27.85024        33.24160         0.24703
C         26.63144        33.89593         0.27000
C         27.82541        36.03831        -0.38969
C         26.48639        35.29632        -0.29783
C         27.84057        37.53858        -0.33787
C         26.59029        38.27892        -0.04576
C         27.84826        40.36037        -0.48089
C         26.61922        39.66346        -0.14294
C         27.83039        41.73266        -0.77018
C         26.54035        42.43265        -0.84029
C         27.85932        44.61797        -0.66915
C         26.54953        43.95586        -0.69741
C         27.98725        45.96709        -0.07353
C         26.75860        46.68408         0.42308
C         28.14579        48.73413         0.81068
C         26.85910        48.12834         0.74306
C         28.24137        50.07327         1.26899
C         27.07885        50.76162         1.64806
C         30.54917        20.44399        -0.35060
C         29.36275        21.09291        -0.46888
C         30.39244        23.07232         0.75838
C         29.13473        22.36247         0.22367
C         30.38638        24.55113         0.78753
C         29.08320        25.20560         1.03071
C         30.37157        27.43617         0.56017
C         29.10267        26.76547         0.96227
C         30.38084        28.83047         0.31736
C         29.12290        29.59870         0.11842
C         30.34550        31.75965         0.18815
C         29.14389        31.06251         0.23779
C         30.35758        33.19093         0.17358
C         29.11708        33.94360         0.10075
C         30.31653        36.11555         0.11502
C         29.08948        35.32603        -0.09162
C         30.34853        37.58563        -0.13229
C         29.13224        38.27041        -0.22900
C         30.32187        40.39006        -0.64963
C         29.10374        39.67545        -0.44387
C         30.28940        41.79363        -0.94177
C         29.03682        42.45815        -0.98286
C         30.23184        44.63306        -1.32542
C         28.99128        43.90585        -1.02287
C         30.34288        46.12276        -0.91272
C         29.22809        46.73083        -0.19478
C         30.64481        48.62912         0.40520
C         29.35271        48.02031         0.35924
C         30.77409        50.05201         0.79894
C         29.54828        50.78483         1.26139
C         30.95445        52.26921         2.67729
C         29.74837        51.95647         2.14956
C         32.97125        18.89818         0.27190
C         32.93566        20.27233         0.46162
C         31.70585        21.03901         0.29515
C         32.88298        23.09067         1.20837
C         31.67550        22.37140         0.65577
C         32.86801        24.58233         0.84543
C         31.55513        25.25743         0.62026
C         32.78503        27.38082         0.04790
C         31.58513        26.70986         0.45175
C         32.79762        28.78114        -0.07912
C         31.59258        29.50676         0.10594
C         32.89404        31.72581        -0.14845
C         31.61616        30.99093         0.19074
C         32.77161        33.17386        -0.37050
C         31.60288        33.86395        -0.04999
C         32.89203        36.08522        -0.09142
C         31.61736        35.33483         0.13060
C         32.88313        37.59202        -0.16561
C         31.58005        38.31303        -0.21897
C         32.81597        40.45697        -0.67726
C         31.55727        39.68851        -0.51704
C         32.78843        41.82879        -1.23094
C         31.51793        42.52826        -1.21301
C         32.67557        44.67767        -1.93177
C         31.47880        43.89055        -1.46290
C         32.80993        45.99812        -1.19587
C         31.69216        46.66688        -0.69895
C         33.12942        48.37221         0.32632
C         31.82061        47.90353         0.01109
C         33.21157        49.54471         1.18938
C         32.15535        50.62777         1.15152
C         33.32168        51.75072         3.13025
C         32.16031        51.50491         2.41960
C         33.53070        52.85597         4.04911
C         35.41435        18.76418         0.52933
C         34.18460        18.17135         0.27517
C         35.40936        20.18728         1.09453
C         34.16278        20.98600         0.75100
C         35.44787        23.09377         0.82701
C         34.16740        22.35414         0.86773
C         35.44553        24.57712         0.50956
C         34.12434        25.30821         0.47990
C         35.30990        27.26800        -0.56657
C         33.98097        26.54066        -0.39991
C         35.22206        28.68050        -1.02864
C         33.97725        29.48026        -0.69109
C         35.20057        31.64969        -1.07131
C         34.07795        30.97408        -0.66300
C         35.18990        33.13540        -1.23765
C         33.91659        33.88090        -0.95691
C         35.28891        36.06019        -0.86196
C         33.97858        35.37798        -0.83437
C         35.28178        37.51123        -0.88328
C         34.09680        38.22483        -0.72966
C         35.22717        40.32688        -1.54149
C         34.11258        39.68733        -0.80097
C         35.25641        41.79868        -1.64759
C         33.96779        42.48654        -1.59685
C         35.14578        44.58303        -2.08316
C         33.96265        43.90010        -1.86938
C         35.22472        45.98907        -1.76840
C         34.09945        46.58432        -1.08268
C         35.63854        48.17842        -0.10028
C         34.27803        47.71589        -0.23375
C         36.02566        49.00450         1.01743
C         34.26800        49.75009         2.01251
C         35.91775        51.47377         2.95954
C         34.51286        50.91655         2.85824
C         36.02660        52.77366         3.73520
C         34.77333        53.33100         4.30302
C         37.90253        15.96972        -0.10832
C         36.70276        16.68482        -0.03242
C         37.91366        18.64764         0.78268
C         36.63750        18.01459         0.41707
C         37.91771        20.18258         0.94450
C         36.68156        20.94530         0.78613
C         37.85668        23.08192         0.25465
C         36.68476        22.32718         0.56798
C         37.80201        24.42131        -0.25104
C         36.61370        25.17877        -0.18400
C         37.74017        27.26233        -1.08176
C         36.50228        26.56021        -0.61857
C         37.75618        28.73549        -1.10875
C         36.49029        29.43320        -1.35333
C         37.78682        31.72638        -1.39139
C         36.46715        30.95202        -1.46236
C         37.82852        33.21416        -1.20533
C         36.49607        33.92688        -1.24000
C         37.72710        36.08904        -0.61750
C         36.46499        35.36571        -0.91263
C         37.76273        37.52714        -0.97122
C         36.53394        38.16871        -1.15760
C         37.77888        40.25222        -1.81202
C         36.51811        39.53464        -1.66564
C         37.68861        41.66386        -2.22156
C         36.41924        42.41237        -2.03880
C         37.65678        44.59779        -2.61709
C         36.33882        43.80906        -2.60926
C         37.63424        46.10097        -2.50925
C         36.43441        46.70498        -1.88475
C         37.88981        48.57341        -0.96675
C         36.63340        47.82453        -1.02307
C         37.88188        49.87886        -0.22241
C         36.99624        49.97121         0.98363
C         38.27885        51.93600         1.99550
C         36.90284        51.29512         1.76708
C         38.37342        53.23121         2.71644
C         37.27378        53.62679         3.63350
C         38.30514        55.85218         3.86713
C         37.24552        55.03713         4.06557
C         40.43336        14.50073        -0.53461
C         40.40220        15.81410        -0.08032
C         39.16826        16.55710         0.12398
C         40.37921        18.68567         0.43939
C         39.18602        17.94952         0.47869
C         40.40013        20.10410         0.43664
C         39.20836        20.90507         0.76461
C         40.33245        22.96372        -0.22030
C         39.15607        22.40948         0.45778
C         40.36260        24.33771        -0.79296
C         39.03310        25.02884        -0.86001
C         40.35292        27.23005        -0.98065
C         39.03863        26.50460        -1.16783
C         40.29440        28.70761        -0.84431
C         39.03039        29.44882        -1.19358
C         40.16886        31.61887        -0.37577
C         39.06734        30.95980        -1.15549
C         40.16520        33.12478        -0.03034
C         39.04665        33.88678        -0.71866
C         40.26283        36.13649        -0.56889
C         39.01545        35.34110        -0.51654
C         40.23101        37.52037        -0.76050
C         38.99969        38.22372        -1.08388
C         40.21373        40.40631        -1.54873
C         38.98613        39.62457        -1.48873
C         40.23709        41.74931        -1.90019
C         38.98837        42.44585        -2.28031
C         40.19968        44.66668        -2.32017
C         38.89955        43.94657        -1.98543
C         40.19118        46.05321        -2.42977
C         38.93681        46.91251        -2.54613
C         40.20706        48.97648        -1.81075
C         38.99603        48.12681        -1.63001
C         40.26241        50.35210        -1.20040
C         39.06742        50.79398        -0.33606
C         40.08426        52.91766         0.56456
C         39.25585        51.75374         0.82016
C         40.42867        53.85277         1.50462
C         39.47886        54.06945         2.58343
C         40.61963        56.22392         3.04866
C         39.50909        55.39639         3.20561
C         40.62507        57.60939         3.41926
C         42.88288        14.46098        -0.68210
C         41.65401        13.82864        -0.78464
C         42.97845        15.82069        -0.29349
C         41.70974        16.47917         0.14202
C         42.86911        18.73874        -0.14390
C         41.67317        17.97795         0.32534
C         42.86038        20.21079        -0.04873
C         41.56293        20.79686         0.02076
C         43.13589        23.13523        -0.64502
C         41.34488        22.10347        -0.52199
C         42.90034        24.51782        -0.39300
C         41.64059        25.13777        -0.62752
C         42.73320        27.30865        -0.13582
C         41.57223        26.53472        -0.46835
C         42.64083        28.75768         0.18006
C         41.19161        29.31239         0.20769
C         42.95616        31.85915         0.31124
C         41.04201        30.80773         0.27015
C         42.74431        33.24189        -0.10369
C         41.52334        33.86625        -0.21184
C         42.79717        36.16902        -0.16227
C         41.49587        35.37966        -0.21459
C         42.80980        37.66207        -0.44260
C         41.46217        38.35470        -0.60780
C         42.77775        40.48652        -1.44131
C         41.45458        39.79364        -1.05364
C         42.70211        41.78521        -2.13095
C         41.47512        42.50059        -2.08230
C         42.65568        44.60993        -2.75505
C         41.41454        43.90425        -2.34966
C         42.71872        46.07314        -2.53369
C         41.45424        46.80411        -2.56966
C         42.81136        48.88237        -1.86491
C         41.49700        48.30527        -2.23368
C         42.84488        50.22847        -1.29864
C         41.63022        50.94534        -1.03583
C         42.86459        52.94390        -0.21196
C         41.72162        52.31509        -0.69622
C         42.87360        54.23683         0.51754
C         41.62918        54.71075         1.31863
C         43.00575        56.58858         2.22530
C         41.89868        55.60739         2.52163
C         42.89888        57.90687         2.56950
C         41.70466        58.41745         3.17532
C         45.49454        15.95860        -0.43094
C         44.20343        16.53202        -0.25392
C         45.39609        18.79516        -0.11620
C         44.16263        18.01304        -0.28897
C         45.33756        20.22896         0.14174
C         44.07449        20.93299        -0.02679
C         45.23403        23.12905         0.54564
C         44.10959        22.37275        -0.01542
C         45.26765        24.57461         0.26246
C         44.05834        25.26380        -0.01677
C         45.25150        27.41579         0.06151
C         44.00089        26.68515         0.01238
C         45.23274        28.83124        -0.07197
C         43.98295        29.57061         0.20816
C         45.18075        31.65248        -0.72629
C         44.00492        31.04779        -0.02970
C         45.16201        33.15252        -0.89544
C         44.04434        33.93955        -0.27773
C         45.26963        36.11569        -0.83839
C         44.08958        35.42845        -0.29028
C         45.23912        37.52145        -1.06621
C         44.02870        38.31067        -0.99312
C         45.19086        40.26827        -1.95600
C         44.02142        39.66463        -1.46764
C         45.22945        41.59037        -2.64432
C         43.91549        42.35704        -2.75114
C         45.21494        44.60966        -3.13636
C         43.91237        43.84187        -3.02962
C         45.13158        46.07169        -2.92008
C         43.92066        46.76983        -2.53983
C         45.31512        48.84375        -2.05344
C         43.97089        48.19628        -2.21870
C         45.35069        50.24251        -1.43491
C         44.06910        50.89609        -1.11676
C         45.41371        52.88881        -0.14263
C         44.11119        52.28789        -0.62049
C         45.41107        54.09236         0.72539
C         44.19674        54.76755         0.98734
C         45.47910        56.53318         2.08839
C         44.23766        55.98040         1.72494
C         46.63834        16.73834        -0.51762
C         47.80711        19.02669        -0.33642
C         46.61155        18.15197        -0.31041
C         47.74952        20.07692         0.77124
C         46.49777        20.90738         0.49726
C         47.78856        23.11391         0.50835
C         46.53385        22.35874         0.76943
C         47.74506        24.52080         0.26544
C         46.49024        25.27944         0.27007
C         47.80994        27.39350         0.14691
C         46.48106        26.67857         0.08561
C         47.69358        28.84778        -0.26946
C         46.46137        29.53862        -0.34628
C         47.71657        31.61924        -0.79987
C         46.48612        30.93717        -0.64304
C         47.72738        33.09444        -1.04736
C         46.45453        33.89403        -1.08738
C         47.69963        36.06464        -1.04907
C         46.47420        35.38407        -0.93956
C         47.71113        37.47688        -1.24174
C         46.46356        38.15087        -1.37720
C         47.73205        40.33348        -1.74125
C         46.44977        39.52620        -1.85751
C         47.49533        41.84688        -1.60685
C         46.61993        42.30787        -2.80197
C         47.85067        44.56177        -2.66918
C         46.57406        43.84875        -2.96990
C         48.07602        45.85652        -3.15621
C         46.20930        46.88740        -3.26952
C         47.73868        48.75319        -2.99092
C         46.43287        48.20430        -2.82493
C         47.83638        50.68508        -1.85710
C         46.59271        51.06570        -1.26795
C         47.90378        52.50893         0.24188
C         46.62291        52.07152        -0.31839
C         47.92971        53.87321         0.97948
C         46.65255        54.63182         1.14799
C         46.66767        55.87125         1.80538
C         49.69642        20.09887        -1.46292
C         48.62665        19.09214        -1.41009
C         50.67909        20.05079        -0.52498
C         48.96624        20.99029         1.02010
C         50.17688        22.99305        -0.05175
C         48.99693        22.37412         0.43435
C         49.99602        24.31816        -0.50269
C         48.91775        25.15468        -0.21111
C         50.29558        27.41389        -0.31206
C         48.95934        26.64078        -0.61040
C         50.09923        28.76384        -0.10080
C         48.90868        29.54249        -0.38880
C         50.23003        31.65424        -1.08226
C         48.96172        30.93226        -0.70088
C         50.26237        33.17333        -1.05539
C         48.98097        33.85013        -0.70984
C         50.26260        36.00326        -1.11032
C         48.96336        35.34150        -0.79928
C         50.22856        37.52536        -1.21014
C         48.92968        38.21836        -1.19322
C         50.06059        40.36985        -0.88869
C         48.92024        39.64714        -1.18979
C         50.04436        41.85255        -0.96309
C         48.80780        42.60334        -1.38274
C         50.12904        44.69323        -1.75948
C         48.93973        43.98253        -1.93208
C         50.26787        46.08557        -2.13179
C         49.11031        46.72450        -2.71248
C         50.26407        48.96203        -2.59732
C         49.01327        48.13868        -2.83833
C         50.31472        50.34198        -1.89860
C         49.08726        50.97500        -1.34142
C         50.37433        52.57984         0.00199
C         49.15628        51.96975        -0.31117
C         50.36747        53.88768         0.59527
C         49.22219        54.54687         0.95191
C         53.07281        20.46684        -0.34486
C         51.75162        21.04630        -0.30484
C         52.72939        23.21625         0.34784
C         51.54127        22.39777        -0.08805
C         52.80099        24.70030         0.28981
C         51.87070        25.46388        -0.34096
C         52.86781        27.61739        -0.05207
C         51.65955        26.90116        -0.18658
C         53.09897        28.97732        -0.63383
C         51.95952        29.89572        -0.58814
C         52.61549        31.96612        -1.76870
C         51.59172        31.05911        -1.21298
C         52.77197        33.21430        -1.11395
C         51.54817        33.91340        -0.85874
C         52.77177        36.07413        -0.74662
C         51.52945        35.31021        -0.78455
C         52.69457        37.55978        -0.70715
C         51.45050        38.23026        -0.85133
C         52.55895        40.46676        -0.36647
C         51.31341        39.66568        -0.54104
C         52.54962        41.93160        -0.59414
C         51.36364        42.53209        -1.28541
C         52.58796        44.77337        -0.99105
C         51.28784        44.03470        -1.11139
C         52.70774        46.04948        -1.74495
C         51.46944        46.78069        -2.07158
C         52.83184        48.85858        -2.19532
C         51.57694        48.15809        -2.70858
C         52.83007        50.13570        -1.61373
C         51.59346        50.81387        -1.30120
C         52.85151        52.50886        -0.07477
C         51.60917        51.95849        -0.47499
C         54.19271        21.16504        -0.03826
C         55.34414        23.33932         0.65077
C         54.09764        22.52688         0.48925
C         55.27574        24.72050         0.92333
C         53.93464        25.45451         0.96972
C         55.41315        27.53554         0.52767
C         54.06940        26.80343         0.25456
C         55.38325        28.98539         0.43737
C         54.54462        29.58521        -0.58894
C         55.14978        31.88135         0.29363
C         55.02136        30.97910        -0.87399
C         55.03678        33.27855         0.12884
C         54.13142        33.91466        -0.99154
C         55.29917        36.12719        -0.47058
C         53.98177        35.41340        -0.70965
C         55.16175        37.65093        -0.34421
C         53.87489        38.30909        -0.54756
C         54.91451        40.51258         0.24864
C         53.89988        39.81762        -0.63929
C         54.80613        41.96884         0.34746
C         53.70177        42.64618        -0.36699
C         55.08002        44.69843        -0.64804
C         53.84048        44.03940        -0.69345
C         55.23694        46.01964        -1.22367
C         54.06812        46.64777        -1.92402
C         55.36162        48.79512        -1.85963
C         54.14231        48.11379        -2.41617
C         55.35304        50.12305        -1.50431
C         54.07811        50.77342        -1.24784
C         54.04943        51.96181        -0.50316
C         57.76510        23.38313         0.94835
C         56.59369        22.69022         0.65550
C         57.69288        24.74492         1.25063
C         56.46724        25.43989         1.22306
C         57.17817        27.70285         2.22791
C         56.41938        26.89250         1.37536
C         56.72002        29.06331         2.44137
C         55.90879        29.77913         1.47625
C         56.38162        32.13544         2.35563
C         55.75387        31.25012         1.42997
C         56.60853        33.50021         2.01883
C         55.86553        34.09884         0.95358
C         57.00731        36.19934         1.43230
C         56.03964        35.49722         0.71138
C         57.02210        37.67077         1.42033
C         56.17424        38.42365         0.47438
C         57.14656        40.61023         1.25964
C         55.99483        39.86851         0.78053
C         57.27211        41.96098         1.00688
C         56.09632        42.75390         0.61608
C         57.50121        44.64550        -0.15891
C         56.24640        44.06296        -0.06369
C         57.66323        45.94927        -0.75992
C         56.48531        46.61863        -1.27399
C         57.90411        48.73748        -1.59490
C         56.61166        48.00146        -1.80876
C         57.80912        50.19205        -1.35123
C         56.61419        50.81723        -1.26909
C         60.17197        25.64545         3.39574
C         59.07329        26.08845         2.65653
C         58.81159        27.99037         4.13743
C         58.31594        27.23071         3.02837
C         58.18233        29.25531         4.47189
C         57.08577        29.63479         3.68410
C         57.98763        32.29317         4.26387
C         56.90036        31.70317         3.60621
C         58.39147        33.59205         3.77514
C         57.60546        34.22371         2.75379
C         58.99715        36.26862         2.95474
C         57.85743        35.57939         2.40771
C         59.25490        37.63906         2.61405
C         58.11003        38.42694         2.16475
C         59.65475        40.48904         1.92594
C         58.26227        39.89546         1.92643
C         59.80691        41.82684         1.29157
C         58.57596        42.64264         1.14550
C         60.03091        44.45858         0.05168
C         58.68953        44.02682         0.49267
C         60.13551        45.77030        -0.58460
C         58.93447        46.53989        -0.81879
C         60.38727        48.40817        -1.67264
C         59.10175        48.03586        -0.97855
C         60.57677        26.35217         4.53401
C         59.92080        27.52403         4.88090
C         58.71671        30.19092         5.42567
C         58.65096        31.56780         5.31832
C         59.53011        34.27669         4.26848
C         59.85153        35.55038         3.83365
C         60.55029        38.23824         2.53779
C         60.76538        39.53279         2.12655
C         61.01254        42.36908         0.93084
C         61.12124        43.66088         0.32534
C         61.36037        46.29472        -0.98141
C         61.45674        47.57643        -1.61568
O         47.74819        50.14057        -3.13596
O         47.14563        33.50164        -2.32169
O         35.25144        48.77071         2.15785
O         44.90116        53.21934        -1.50131
O         53.53233        45.77558        -2.97078
O         37.91253        19.28459         2.11474
O         43.03873        44.20348        -4.14718
O         26.33069        43.29674        -2.00693
O         58.89604        25.42160         1.43245
O         38.21729        35.76244         0.74239
O         24.67829        46.82576        -0.94905
O         23.18284        36.82219         2.41057
O         36.39480        30.13470        -2.65653
O         50.36841        50.19436        -3.36688
O         40.53127        53.05230        -0.74830
O         27.85756        36.81381        -1.65231
O         42.25544        22.49734        -1.51482
O         33.59090        25.43257         1.82304
O         51.66015        44.67887         0.14649
O         47.20170        46.37632        -4.11622
O         41.46534        47.84852        -3.60785
O         37.08117        52.67729         4.75714
O         29.47755        22.37033         1.65247
O         46.01163        44.17513        -4.27293
O         27.51498        45.86731         1.36664
O         39.45242        51.08701         2.11276
O         39.41068        21.91841         1.81596
O         55.62205        31.22443        -1.91153
O         35.55379        39.68034        -2.79678
O         55.13659        26.82395        -0.71859
O         41.89555        17.10259         1.47561
O         51.12243        29.51568         0.48208
O         44.45156        41.57319        -3.88096
O         47.90506        52.60729         1.70830
O         55.04328        42.61806         1.62548
O         51.86942        40.00952         0.83141
O         45.60219        49.00301        -0.60992
O         38.38198        41.98738        -3.49997
O         50.07486        32.47258        -2.31652
O         29.12219        26.04473         2.22228
O         42.17293        40.62599        -0.10706
O         51.01981        24.86537        -1.28238
O         35.78112        33.60334        -2.47519
O         30.04214        45.71871        -2.30217
O         42.13669        38.30756         0.68213
O         44.45971        34.66247         0.92498
O         49.21847        42.53025         0.03647
O         38.71265        44.10376        -0.60110
O         58.54975        43.86880         1.94247
O         40.85192        28.12445        -2.04753
O         26.49333        25.95433         1.98396
O         56.23789        30.62778         4.20934
O         33.51358        34.77314        -2.07320
O         27.28095        31.36947         1.76658
O         32.55675        31.39192         1.25382
O         47.35375        39.73745        -2.99871
O         23.59964        33.48789         2.01141
O         37.86082        51.08065        -1.10561
O         49.76061        20.68115         1.90543
O         42.08513        35.86248         1.05610
O         50.32142        36.63650        -2.40935
O         43.33568        18.39155        -1.50421
O         39.37865        30.27397        -2.39741
O         54.03468        28.89652        -1.74246
O         56.36482        38.28504        -0.98253
O         45.69770        22.78179         1.89391
O         30.97835        35.73206         1.37730
O         37.63228        45.40961        -3.82516
O         39.90936        50.18119        -2.60214
O         34.18875        28.90193        -2.04255
O         44.81369        32.29184        -2.01029
O         35.47045        50.49000         3.90959
O         53.21313        22.70921         1.64696
O         57.55747        48.23837        -2.91714
O         38.02639        32.57491        -2.55147
O         58.77001        40.57828         3.10965
O         24.89617        26.85808        -0.79156
O         41.96288        31.36008         1.16461
O         28.47247        29.12803        -1.15037
O         48.98278        34.62793         0.51157
O         39.60431        24.35505        -2.04808
O         33.75385        40.33718         0.46078
O         33.26730        36.85806         1.06957
O         56.82387        38.14405         2.80129
O         43.32806        29.09511         1.42857
O         41.93509        55.26883         0.03169
O         30.05050        50.96182        -0.12179
O         38.30388        26.76434        -2.38862
O         35.70824        24.09656         1.86913
O         23.10604        45.15171         1.86622
O         47.53267        19.39504         2.02504
H         48.35424        19.51783         2.55759
O         53.38100        31.54368        -2.74743
H         54.09671        32.21767        -2.92207
O         35.33233        20.02967         2.54574
H         36.20923        19.67856         2.83766
O         35.99547        43.54038        -4.00189
H         36.31866        44.30614        -4.53223
O         26.04182        35.04470        -1.66376
H         26.45506        35.74161        -2.22838
O         32.78323        23.02318         2.65444
H         33.42374        23.68211         3.00886
O         24.51842        40.07605         2.17826
H         23.91462        39.51544         2.71225
O         54.78712        33.73194        -2.27062
H         55.55141        34.36126        -2.31196
O         39.85586        33.19323         1.39140
H         39.82677        34.13919         1.65651
O         53.60223        25.71194         2.35334
H         53.40708        24.84356         2.76955
O         38.96617        47.52584        -3.85896
H         38.79394        46.81799        -4.51929
O         40.64451        28.81884         1.46728
H         41.25319        29.13088         2.17555
O         54.25451        40.16825        -2.01464
H         55.07249        39.66668        -2.23135
O         51.74601        47.93307        -4.14561
H         51.58331        48.79926        -4.58238
O         48.23450        27.38227         1.54378
H         47.49295        27.71279         2.09333
O         23.72820        42.58596        -1.91396
H         24.53387        42.95562        -2.35494
O         47.24152        41.88636        -4.01506
H         46.66700        42.18631        -4.75414
O         59.19027        48.56533         0.38788
H         59.94969        48.12704         0.82767
O         32.46159        44.97851        -3.34631
H         31.57775        45.41457        -3.41254
O         42.39561        54.69721         3.55398
H         42.48792        55.20485         4.38733
O         36.27306        52.20977         0.80907
H         36.69035        52.05963        -0.08066
O         46.67744        42.07080        -0.43614
H         47.28885        42.15697         0.33395
O         32.54051        51.53712         0.09102
H         31.70464        51.84182        -0.33707
O         48.69588        26.72313        -2.01782
H         49.39577        26.22257        -2.48868
O         50.78844        18.94036         0.26435
H         51.36812        19.13726         1.02769
O         56.16128        35.86773        -1.62211
H         56.71362        36.67778        -1.74917
O         54.38695        48.06783        -3.84621
H         53.64738        47.53802        -4.23583
O         23.99677        31.15226        -1.47351
H         23.32117        30.51055        -1.78115
O         33.64389        26.04668        -1.73117
H         33.67519        26.82463        -2.33627
O         51.53788        42.29737        -2.71638
H         52.45808        42.52240        -2.97065
H         22.88016        23.47461         1.21944
H         20.78301        24.78875         1.42152
H         20.73278        27.21264         1.09071
H         20.67327        29.08713         0.63214
H         20.68488        31.51537         0.86488
H         20.64955        33.60719         0.48317
H         20.76303        35.99025         0.96370
H         20.85311        37.90990         1.54792
H         20.76060        40.24867         0.91895
H         20.64110        42.05429         0.05254
H         20.71027        44.47109         0.35907
H         20.74356        46.50350         0.81812
H         23.21019        49.91304         1.73770
H         21.00616        48.89611         1.35256
H         24.53065        22.75752        -0.61428
H         24.94425        50.75552         1.84079
H         26.70383        21.60145        -0.86218
H         27.14309        51.80080         1.99571
H         30.67084        19.47162        -0.84779
H         28.56172        20.67001        -1.09185
H         31.01434        53.11623         3.37629
H         28.87647        52.56721         2.42263
H         32.04601        18.34706         0.05719
H         32.66582        53.35107         4.51289
H         34.12979        17.10053         0.03232
H         34.88112        54.16167         5.01471
H         37.84363        14.91474        -0.40792
H         35.77854        16.15450        -0.29984
H         38.25883        56.88279         4.24374
H         36.37219        55.40725         4.61867
H         39.49962        13.94970        -0.71209
H         39.72315        58.05422         3.86118
H         43.79448        13.90743        -0.94772
H         41.61607        12.78119        -1.11435
H         43.72490        58.60426         2.36902
H         41.65942        59.48351         3.43612
H         45.59390        14.86581        -0.50408
H         45.50881        57.47455         2.65408
H         47.60921        16.24933        -0.68033
H         47.61855        56.30812         2.13836
H         49.66791        20.89937        -2.21508
H         48.47508        18.40898        -2.26364
H         51.30867        54.45262         0.63189
H         49.27281        55.62177         1.17477
H         53.15828        19.43209        -0.70634
H         52.88067        53.39000         0.57769
H         55.17449        20.71242        -0.22739
H         54.98480        52.44024        -0.18729
H         58.73618        22.87284         0.93887
H         56.66500        21.61619         0.44427
H         58.73495        50.74239        -1.12782
H         56.59503        51.89379        -1.05294
H         60.72981        24.76483         3.05311
H         60.46492        49.39750        -2.14553
H         61.43725        26.00474         5.12138
H         60.27609        28.10178         5.74344
H         59.38701        29.79775         6.20518
H         59.27386        32.14782         6.01639
H         60.17203        33.78589         5.01304
H         60.74050        36.05221         4.24055
H         61.42493        37.60446         2.74789
H         61.79760        39.89131         2.00682
H         61.93763        41.79305         1.07569
H         62.12915        43.99352         0.04199
H         62.27947        45.70466        -0.86902
H         62.41942        47.87288        -2.05634
