         260
 CSIRO Nanostructure Databank - Neutral Graphene Oxide Data Set
C         30.30421        31.52227         0.45554
C         30.26905        32.72233         0.80754
C         30.23318        36.01092         1.13504
C         30.31066        37.24331         1.08997
C         30.26545        40.48733         0.66304
C         30.23438        41.69319         0.27570
C         32.70472        28.73346        -0.48512
C         31.62428        29.31457        -0.12652
C         32.65197        31.47470         0.05178
C         31.36714        30.65404         0.14535
C         32.65078        32.96995         0.24988
C         31.41024        33.64106         0.83818
C         32.57679        35.91477         0.42554
C         31.40006        35.12165         1.01437
C         32.56981        37.41042         0.54713
C         31.40993        38.14264         0.83938
C         32.49675        40.21101         0.10850
C         31.35202        39.57384         0.68063
C         32.33501        41.40494        -0.61857
C         31.25817        42.32415        -0.47367
C         32.76681        44.15916        -1.28365
C         31.72349        43.62590        -0.88568
C         35.60622        27.45088        -0.96455
C         35.30731        28.69551        -0.32030
C         33.99908        29.20824         0.03181
C         35.21020        31.53004         0.32699
C         33.95291        30.76437         0.29186
C         35.14725        32.98455         0.38840
C         33.95703        33.68591         0.41462
C         35.16869        35.96032         0.05358
C         33.87816        35.16705         0.18084
C         35.16187        37.45593         0.20851
C         33.86260        38.13100         0.53402
C         35.13946        40.48649         0.34470
C         33.83788        39.64101         0.35905
C         35.35845        41.70389        -0.56783
C         34.37313        42.39808        -1.20564
C         35.33965        44.70325        -0.76334
C         34.21368        43.89494        -1.33632
C         35.41538        46.02769        -0.07408
C         37.97542        27.61705        -1.29151
C         36.66667        26.83991        -1.18561
C         37.79277        28.72284        -0.18622
C         36.47038        29.44430        -0.08072
C         37.66887        31.50204         0.81707
C         36.42392        30.81796         0.34071
C         37.64700        33.00973         0.96100
C         36.44948        33.72149         0.38370
C         37.62323        35.98436         0.81196
C         36.46471        35.21378         0.23571
C         37.62211        37.48190         0.90793
C         36.40343        38.25953         0.50036
C         37.62693        40.42417         0.92552
C         36.39937        39.61955         0.47751
C         37.67303        41.80366         0.30686
C         36.59750        42.40926        -0.27388
C         37.82229        44.70983        -0.28889
C         36.49351        43.90464        -0.09882
C         37.77613        45.86636         0.75103
C         36.35876        46.29866         0.69742
C         40.35410        24.60104        -1.86787
C         39.63634        25.61650        -1.64623
C         40.40990        27.61490        -0.69726
C         39.27687        26.85818        -1.18327
C         40.32469        28.80246        -0.02969
C         39.02799        29.41134         0.33551
C         40.18498        31.59896         0.71468
C         38.98869        30.83751         0.70965
C         40.20025        33.00212         0.76394
C         38.95870        33.76472         0.99286
C         40.17194        36.02938         0.45246
C         38.95463        35.26744         0.87255
C         40.19678        37.39136         0.56265
C         38.96895        38.17132         0.93993
C         40.16400        40.30628         0.08876
C         38.97401        39.67272         0.83627
C         40.22109        41.85777         0.11512
C         38.93779        42.59334         0.35325
C         40.26315        44.75433         0.41112
C         38.91608        44.09044         0.59137
C         40.24676        46.12336         0.44145
C         38.92102        46.86814         0.74680
C         39.98497        48.73632        -0.47848
C         38.99706        48.03647        -0.22128
C         42.67007        24.33421        -1.39626
C         41.46289        23.78496        -1.95446
C         42.83137        27.28194         0.07846
C         41.79407        27.18916        -1.04072
C         42.83144        28.68167         0.70503
C         41.53054        29.41764         0.57679
C         42.78264        31.65301         0.44230
C         41.49444        30.90881         0.47942
C         42.78850        33.15019         0.70074
C         41.42673        33.75119         0.36958
C         42.66350        35.97557        -0.18514
C         41.37850        35.22940         0.09844
C         42.70641        37.46205        -0.01921
C         41.48534        38.15199         0.51681
C         42.71507        40.35567        -0.11269
C         41.48609        39.64307         0.47572
C         42.76785        41.81314         0.37563
C         41.50533        42.60642         0.26602
C         42.83002        44.74190         0.45699
C         41.50352        43.98013         0.32735
C         42.75261        46.16682        -0.09189
C         41.43876        46.90090         0.00441
C         42.64597        48.96917        -0.54391
C         41.35555        48.46521         0.07474
C         43.48506        25.10925        -0.91469
C         45.28753        26.53971         0.31590
C         43.89837        26.18115         0.00058
C         45.38736        28.79620         0.77790
C         44.09977        29.51184         1.06209
C         45.22603        31.56278         0.19239
C         44.08069        30.91773         0.51265
C         45.22867        33.04994         0.16752
C         43.95903        33.77300        -0.02864
C         45.29060        35.96285        -0.26540
C         43.94899        35.19068        -0.33186
C         45.26579        37.39222         0.16884
C         44.00549        38.20138         0.05267
C         45.29773        40.30347        -0.07417
C         44.00947        39.56428         0.10745
C         45.41327        41.78232         0.33311
C         44.07225        42.54189         0.33965
C         45.28749        44.73285        -0.38866
C         43.96362        43.94162        -0.26677
C         45.28951        46.25717        -0.30088
C         44.02506        46.96249        -0.13040
C         43.70164        48.30888        -0.31206
C         47.35554        27.28569        -0.28053
C         46.40589        26.40987        -0.49683
C         47.68111        28.59894        -0.17664
C         46.51280        29.37970         0.25542
C         47.78082        31.59459         0.04974
C         46.48444        30.83253        -0.22900
C         47.82004        32.95376         0.11352
C         46.54907        33.74942         0.23764
C         47.88605        35.93511         0.10351
C         46.59640        35.21062        -0.11666
C         47.89982        37.40599         0.17681
C         46.61651        38.10231         0.27732
C         47.89709        40.34525         0.18794
C         46.60092        39.56370        -0.03583
C         47.86411        41.72213        -0.50316
C         46.57982        42.50435        -0.37446
C         47.84094        44.72559        -0.91546
C         46.65137        44.00924        -0.11282
C         47.70344        46.11844        -0.34663
C         46.66684        46.75413        -0.13931
C         50.26738        28.68753        -0.04765
C         48.96916        29.29611        -0.37039
C         50.28157        31.40896         0.49953
C         49.03951        30.80132        -0.11601
C         50.29099        32.92012         0.69029
C         49.15045        33.72497         0.06381
C         50.32844        35.91566         0.82418
C         49.00000        35.12991         0.75896
C         50.37224        37.38081         0.48754
C         49.13182        38.12066         0.21762
C         50.37969        40.29293         0.24243
C         49.15389        39.51225        -0.03359
C         50.47812        41.69940        -0.32472
C         49.19196        42.44074        -0.64858
C         50.47632        44.49149        -0.38402
C         49.16385        43.97303        -0.79069
C         51.34226        29.28018         0.15014
C         52.67950        31.42564         0.79296
C         51.59641        30.63911         0.51021
C         52.60614        32.71011         0.93470
C         51.61242        33.62832         0.81106
C         52.78769        35.94260         0.56349
C         51.64112        35.09724         0.91810
C         52.70420        37.18285         0.64196
C         51.58874        38.07100         0.54806
C         52.81365        40.39983         0.46531
C         51.64058        39.53299         0.64004
C         52.83873        41.64389         0.44028
C         51.83271        42.47319        -0.23653
C         51.54909        43.90786        -0.19704
O         42.50125        40.42530        -1.49728
O         50.98107        35.61530         2.10768
O         44.68559        35.63338        -1.52622
O         38.24503        28.42714         1.15040
O         42.13161        26.96863        -2.18921
O         50.76995        40.11632         1.65864
O         49.11630        30.23597        -1.47891
O         36.80395        34.35994        -0.89503
O         39.11708        34.63633         2.18334
O         42.44481        36.87030        -1.32615
O         41.20491        34.24637        -0.98933
O         49.94398        32.03929         1.78497
O         42.09270        31.31766        -0.81091
O         45.39938        27.50738         1.38144
O         33.26050        41.66825        -1.62667
O         35.16234        44.61838        -2.18581
O         41.93603        46.38848        -1.27700
O         45.23815        45.52045        -1.59658
O         41.90091        28.76533         1.83291
O         32.56675        32.38798        -1.08930
O         47.00038        41.98299        -1.64354
O         38.27754        44.82130         1.75642
O         37.40914        32.18971         2.11741
O         47.48811        35.47331        -1.25376
O         33.90463        39.00217         1.69849
O         49.33120        43.11309        -1.93957
O         45.87079        37.63628         1.47887
O         45.95739        39.86402        -1.30051
O         31.72390        34.26699         2.12039
O         41.70523        38.97944         1.72797
O         42.89245        26.22430         1.06323
O         39.49351        42.42445        -1.01742
O         39.24110        39.02639         2.10448
O         32.93541        35.45523        -0.91036
O         43.42784        42.24839         1.63591
O         35.17645        36.83709        -1.11445
O         33.88368        29.77801         1.35712
O         37.31473        36.64277         2.07578
O         45.85602        33.51314         1.50639
O         51.41695        41.84239        -1.44879
O         38.97868        47.42503         2.04394
H         39.77722        48.00122         2.10913
O         41.35263        48.85583         1.43554
H         41.29286        49.83282         1.49191
O         41.46200        22.54310        -2.45882
H         40.57165        22.29946        -2.78019
O         42.97819        33.39810         2.11603
H         43.90504        33.17359         2.35931
O         46.95930        44.16258         1.27830
H         46.63556        43.36707         1.77604
O         43.51608        43.67664        -1.60258
H         43.76544        44.43619        -2.17854
O         37.96785        28.32112        -2.52745
H         38.20732        27.70836        -3.25337
O         43.16578        44.90936         1.84420
H         43.15072        44.01799         2.26853
O         46.39368        30.79325        -1.68038
H         47.28694        30.55414        -2.03174
O         37.41187        40.69969         2.33585
H         37.90539        40.01070         2.84601
O         35.02219        41.23339         1.59817
H         34.99955        40.58457         2.33851
O         39.97566        39.91612        -1.28142
H         40.83155        40.15663        -1.75595
O         48.02381        40.69119         1.59231
H         48.29228        39.89840         2.10384
O         48.54680        34.89566         2.09749
H         49.33834        34.83378         2.68267
O         45.82717        41.77066         1.72813
H         45.01860        41.62659         2.27745
O         38.13063        44.98953        -1.62280
H         37.31222        45.06924        -2.15729
O         44.07631        29.72385         2.49811
H         43.96214        28.84976         2.93038
O         47.50688        44.79720        -2.27406
H         48.12033        44.23056        -2.79543
O         36.09771        43.92634         1.30400
H         35.78661        43.03009         1.58281
O         49.56480        33.89526        -1.29953
H         48.84639        34.37206        -1.78425
