         344
 CSIRO Nanostructure Databank - Neutral Graphene Oxide Data Set
C          1.50923         2.35384        -2.19287
C          1.41003         3.66189        -1.77997
C          2.65515         1.57629        -1.92086
C          2.45497         4.25793        -0.87533
C          1.31721         6.52616        -0.94041
C          1.32089         7.88486        -1.03887
C          2.53040         5.76140        -0.97281
C          2.59930         8.60483        -1.38462
C          1.43957        10.84834        -1.47218
C          1.41392        12.22793        -1.29119
C          2.56958        10.09473        -1.11777
C          2.53694        12.92406        -0.80027
C          1.35967        15.13748        -0.79598
C          1.36847        16.52545        -0.65927
C          2.53324        14.37601        -0.64967
C          2.55900        17.21494        -0.36712
C          2.58645        18.64842        -0.22084
C          3.83072         2.19810        -1.40835
C          3.79270         3.58472        -1.05479
C          5.05406         1.49852        -1.33188
C          4.98791         4.27545        -0.78279
C          3.76684         6.43105        -0.85161
C          3.79768         7.87156        -0.81559
C          4.98219         5.70753        -0.62825
C          4.92768         8.53195        -0.36449
C          3.69768        10.76518        -0.61556
C          3.70560        12.18028        -0.47534
C          4.84381         9.98873        -0.10313
C          4.95323        12.87383        -0.20375
C          3.75777        15.05258        -0.34761
C          3.76560        16.47451        -0.20669
C          4.97625        14.32518        -0.20780
C          4.97830        17.15709         0.12804
C          3.74717        19.31269         0.05564
C          4.99096        18.60815         0.23056
C          6.25068         2.15284        -0.95726
C          6.22814         3.56912        -0.71697
C          7.47453         1.45182        -0.85806
C          7.43432         4.26075        -0.40865
C          6.18650         6.40107        -0.33556
C          6.16392         7.82159        -0.13440
C          7.41535         5.68184        -0.20195
C          7.36828         8.49412         0.19100
C          6.10337        10.73458         0.28220
C          6.14076        12.17056        -0.02153
C          7.38043         9.96006         0.59144
C          7.41917        12.89326        -0.37714
C          6.18330        15.02588         0.07289
C          6.16100        16.42951         0.29618
C          7.43434        14.31268         0.12496
C          7.40766        17.11030         0.81899
C          6.18923        19.29074         0.40779
C          7.43443        18.60645         0.57148
C          8.67526         2.11772        -0.53218
C          8.65682         3.54250        -0.31010
C          9.89487         1.40915        -0.42877
C          9.86880         4.22879         0.00492
C          8.62026         6.37361         0.10305
C          8.59252         7.79484         0.29133
C          9.84926         5.64402         0.21892
C          9.84305         8.50214         0.54103
C          8.65378        10.63462         0.13366
C          8.70396        12.10702        -0.12561
C          9.88810         9.91895         0.52797
C          9.92440        12.83228         0.30957
C          8.64583        14.95515         0.34214
C          8.66834        16.46568         0.24936
C          9.85940        14.22037         0.50853
C          9.91226        17.12661         0.79543
C          8.64170        19.27018         0.59766
C          9.90421        18.58902         0.81103
C         11.10691         2.06694        -0.12352
C         11.09198         3.49598         0.08789
C         12.32109         1.34971        -0.02638
C         12.30444         4.17274         0.38219
C         11.06481         6.32483         0.54205
C         11.05637         7.77379         0.68669
C         12.26084         5.57801         0.62570
C         12.26687         8.50861         0.83627
C         11.09947        10.64408         0.62185
C         11.11482        12.09851         0.59783
C         12.30198         9.91162         0.80240
C         12.33432        12.81476         0.85859
C         11.00389        14.90630         1.21815
C         11.04030        16.40563         1.05062
C         12.33301        14.22590         1.00289
C         12.29215        17.08798         1.44259
C         11.07108        19.29203         1.01319
C         12.31225        18.61097         1.40299
C         13.54817         2.00027         0.25661
C         13.53863         3.42266         0.45173
C         14.77881         1.29355         0.32916
C         14.77725         4.06622         0.70687
C         13.51399         6.26630         0.98621
C         13.52402         7.76127         1.05375
C         14.78937         5.54728         0.68899
C         14.81302         8.50294         0.92247
C         13.61949        10.64893         0.67626
C         13.57667        12.11672         0.99902
C         14.79545         9.93600         1.28499
C         14.76561        12.79856         1.20406
C         13.54415        14.93837         1.12334
C         13.56877        16.36899         1.25833
C         14.79514        14.23101         1.17986
C         14.77289        17.07230         1.19684
C         13.62670        19.25391         1.24735
C         14.78092        18.52985         1.23348
C         16.00264         1.95063         0.59744
C         15.98474         3.37412         0.75471
C         17.25098         1.26923         0.69022
C         17.20241         4.06977         1.33502
C         16.08120         6.28523         0.70118
C         16.10595         7.77819         0.87656
C         17.39349         5.53785         0.82709
C         17.23192         8.44510         1.65611
C         16.01573        10.60701         1.40386
C         16.03906        12.09380         1.62197
C         17.23177         9.90594         1.30020
C         17.28432        12.74711         1.07769
C         16.01517        14.93790         1.14508
C         16.01662        16.34953         1.01731
C         17.35237        14.23841         1.28587
C         17.21380        17.03304         0.64944
C         16.12617        19.21983         1.26053
C         17.10963        18.50561         0.32214
C         18.49198         1.95156         0.85201
C         18.51382         3.35998         1.08252
C         19.73214         1.25804         0.75776
C         19.73582         4.09276         1.02107
C         18.54306         6.21606         1.62975
C         18.63361         7.78748         1.63570
C         19.78075         5.52489         1.09981
C         19.68645         8.41531         0.75236
C         18.32650        10.53850         0.49131
C         18.38333        12.04091         0.67918
C         19.66012         9.82987         0.55896
C         19.58952        12.72243         0.23488
C         18.45377        14.88885         0.48802
C         18.39767        16.32553         0.33666
C         19.54250        14.15264         0.05692
C         19.57814        17.01955        -0.07541
C         18.44289        19.18111         0.24009
C         19.59507        18.46638        -0.03934
C         20.95912         1.94635         0.70288
C         20.95225         3.39941         0.72463
C         22.20084         1.26153         0.67836
C         22.12874         4.13208         0.45916
C         20.92923         6.25320         0.74679
C         20.88515         7.69038         0.61383
C         22.13447         5.53930         0.42168
C         22.18196         8.44492         0.64159
C         20.82801        10.55942         0.22278
C         20.77210        11.99665         0.00674
C         22.08108         9.88302         0.17718
C         21.99185        12.70884        -0.32833
C         20.65128        14.81701        -0.72800
C         20.74470        16.30621        -0.46731
C         21.97526        14.09786        -0.59659
C         21.90776        16.99509        -0.81447
C         20.81465        19.13875        -0.38901
C         21.91763        18.42593        -0.79867
C         23.42704         1.97696         0.56189
C         23.32665         3.36234        -0.03383
C         24.64704         1.42379         0.86670
C         24.59970         4.16329        -0.01973
C         23.32917         6.26920         0.02097
C         23.35497         7.68479         0.06487
C         24.52185         5.55119        -0.27420
C         24.57326         8.39339        -0.15701
C         23.25681        10.59150        -0.11827
C         23.21536        11.97571        -0.39749
C         24.55855         9.86793        -0.03819
C         24.41394        12.68470        -0.88083
C         23.17697        14.80933        -0.92311
C         23.11359        16.26089        -1.36557
C         24.38706        14.15006        -0.97646
C         24.41612        17.00538        -1.11003
C         23.11626        19.13291        -1.36512
C         24.39957        18.42691        -1.02431
C         25.87557         2.27468         1.00542
C         25.83251         3.53725         0.17536
C         27.15833         1.51783         0.88842
C         27.06477         4.20823        -0.15569
C         25.72300         6.27050        -0.82072
C         25.76583         7.73464        -0.47331
C         27.04153         5.56834        -0.60204
C         27.00452         8.43650        -0.73105
C         25.81817        10.58265        -0.43831
C         25.72300        11.96389        -0.99302
C         27.01276         9.82220        -0.79979
C         27.00042        12.71534        -0.99629
C         25.66102        14.85128        -1.39629
C         25.63654        16.33164        -1.07380
C         26.90799        14.20229        -0.75771
C         26.85457        17.04145        -0.85378
C         25.56506        19.13414        -0.78927
C         26.81319        18.46046        -0.66029
C         28.33045         2.16515         0.52230
C         28.28407         3.51512         0.00437
C         29.61167         1.52353         0.65190
C         29.51887         4.10071        -0.52706
C         28.23039         6.28405        -0.86883
C         28.23843         7.70127        -0.95006
C         29.49218         5.53120        -1.04486
C         29.49223         8.43314        -0.94346
C         28.22080        10.56448        -1.31380
C         28.19052        12.04997        -0.99772
C         29.48858         9.85642        -0.89529
C         29.44501        12.76764        -0.76211
C         28.20253        14.91502        -1.17881
C         28.12253        16.36956        -0.76656
C         29.42952        14.18284        -0.67300
C         29.26932        17.06844        -0.44337
C         28.01163        19.17804        -0.44778
C         29.24500        18.50790        -0.35045
C         30.79743         2.19795         0.39455
C         30.80520         3.49303        -0.15407
C         32.00472         4.24897        -0.34026
C         30.80306         6.28371        -1.29321
C         30.73315         7.74205        -0.87368
C         32.01534         5.53876        -0.78026
C         31.89866         8.47270        -0.62194
C         30.66767        10.57903        -0.62620
C         30.64367        12.04868        -0.52611
C         31.86447         9.85460        -0.44390
C         31.79464        12.77836        -0.16912
C         30.58573        14.88635        -0.30928
C         30.54745        16.37353        -0.02891
C         31.75733        14.16166        -0.03035
C         31.75991        17.15070        -0.46799
C         30.47921        19.21335        -0.30234
C         31.70275        18.52296        -0.47739
O         12.19895        17.86073         2.68448
O         24.90930        12.06592        -2.19423
O         15.60084         8.40310        -0.34385
O         13.49360         6.94325         2.28556
O         29.37475         4.42004        -1.98524
O         19.26972         8.17197         2.86009
O         15.41783         5.97422        -0.57943
O          5.10022        10.36788         1.30417
O          8.82488        11.12183        -1.23585
O         25.44649        10.44977         0.98491
O          8.64722        16.76275        -1.17792
H          9.33319        16.21941        -1.61857
O         25.51266         6.24660        -2.29365
H         26.30710         6.65192        -2.70460
O         16.63340        19.21131         2.60140
H         16.60315        18.29073         2.93553
O         16.79644         8.34525         3.03457
H         17.65684         8.40885         3.54054
O         22.93395        16.21700        -2.82874
H         22.85143        17.16422        -3.11399
O         22.42873         8.52815         2.10348
H         21.54663         8.55403         2.55094
O         28.16945        10.46602        -2.77817
H         28.91333        10.99504        -3.13657
O         23.07496         3.13816        -1.46736
H         22.22823         2.64819        -1.54225
O         30.55564        16.45242         1.45074
H         30.54437        17.40572         1.68454
O         28.35804        14.89021        -2.62068
H         27.46326        14.96150        -3.03494
O         22.97965        19.08796        -2.81264
H         23.78117        19.49711        -3.20096
O         30.97638         6.33552        -2.74404
H         30.65344         5.46987        -3.08696
O         25.83572         2.78865         2.41223
H         26.72950         3.13402         2.62430
O         26.72628        14.39164         0.66894
H         27.52314        14.05287         1.12950
O         18.50089         5.87028         3.02885
H         18.92983         6.67116         3.47001
O         16.50401        18.61026        -1.01450
H         17.10332        18.15860        -1.64590
O         13.89742        10.63551        -0.77942
H         14.50170         9.88563        -0.98694
O         17.72087        14.43236         2.71617
H         18.61642        14.04959         2.84068
O         17.91438         5.44719        -0.52261
H         17.13910         5.45158        -1.13358
O         25.72151        14.73727        -2.84642
H         24.85883        15.05654        -3.19871
O         17.89279        10.33888        -0.91069
H         18.50140        10.85607        -1.48153
O          7.35041        13.09486        -1.83436
H          7.74693        12.28983        -2.24404
O          7.52181         9.97295         2.04145
H          6.61715         9.83928         2.40991
O         16.09510        12.24476         3.07805
H         16.48953        13.13183         3.27047
O         10.71298        14.70515         2.65122
H         11.23347        15.36817         3.15487
O         20.29729        14.69477        -2.15187
H         21.03728        15.10381        -2.65990
O         16.87442         3.97993         2.74201
H         17.54825         4.48903         3.25934
O          2.02138         3.95978         0.51666
H          1.98770         2.98278         0.60007
O          2.74250         8.48971        -2.84941
H          2.71928         7.53364        -3.06839
O          7.43061        16.89832         2.25568
H          6.64740        17.34259         2.64157
H          0.68114         1.89845        -2.75639
H          0.50808         4.24401        -2.01696
H          2.69131         0.52111        -2.22462
H          0.36801         5.99527        -0.77709
H          0.37665         8.44503        -0.98384
H          0.55825        10.34707        -1.89548
H          0.50623        12.77700        -1.57555
H          0.40469        14.64041        -1.01407
H          0.43213        17.08995        -0.77683
H          1.64659        19.20531        -0.34956
H          5.08227         0.42833        -1.58600
H          3.75055        20.40917         0.14392
H          7.49179         0.36757        -1.04235
H          6.19111        20.39153         0.37455
H          9.89840         0.32170        -0.59414
H          8.65854        20.36791         0.50626
H         12.31199         0.26137        -0.18669
H         11.07752        20.38866         0.91737
H         14.77352         0.20290         0.18367
H         13.66766        20.35188         1.17191
H         17.26959         0.17771         0.55033
H         16.02152        20.28844         0.95068
H         19.72768         0.16082         0.67991
H         18.47042        20.28120         0.22913
H         22.21954         0.17963         0.88017
H         20.83077        20.23867        -0.40499
H         24.70218         0.37795         1.20855
H         23.14503        20.20708        -1.03511
H         27.20002         0.48736         1.27113
H         25.53647        20.23256        -0.72107
H         29.64225         0.49822         1.04671
H         27.98040        20.27583        -0.38287
H         31.75838         1.71008         0.61555
H         32.95728         3.76645        -0.07109
H         32.99025         6.02571        -0.92466
H         32.86880         7.96229        -0.55966
H         32.80489        10.37567        -0.22318
H         32.73922        12.25872         0.03829
H         32.66204        14.69203         0.29788
H         32.71979        16.63568        -0.61572
H         30.46989        20.31229        -0.28281
H         32.61854        19.10751        -0.65142
