         276
 CSIRO Nanostructure Databank - Neutral Graphene Oxide Data Set
C        -10.95193         0.58843        -0.38743
C         -9.84406         1.43795        -0.99447
C         -8.50288         0.72710        -0.78836
C         -7.23871         1.50413        -0.70075
C         -5.94026         0.80258        -1.04404
C         -4.65573         1.56647        -0.81153
C         -3.37150         0.81682        -0.52116
C         -2.42288         1.54695         0.41918
C         -1.32369         0.77881         1.10049
C         -0.18209         1.49091         1.88376
C          1.19924         0.81856         1.78631
C          2.50158         1.54668         1.59646
C          3.55118         0.82454         0.73240
C          4.90454         1.53793         0.62960
C          6.01786         0.75447         0.00922
C          7.31492         1.47288        -0.38683
C          8.55720         0.70445        -0.49987
C          9.84279         1.40083        -0.51129
C         11.04619         0.57488        -0.58457
C         -9.86463         2.83314        -0.34316
C         -8.59039         3.65131        -0.46500
C         -7.28173         3.02900        -0.90758
C         -6.09871         3.64268        -0.14766
C         -4.76573         3.01341        -0.44660
C         -3.53228         3.81622        -0.12652
C         -2.27288         3.04615         0.20509
C         -1.14363         3.77304         0.87202
C         -0.07796         3.03249         1.65066
C          1.23400         3.77649         1.70323
C          2.55636         3.05598         1.62408
C          3.83311         3.73327         1.22606
C          4.99262         2.89424         0.76809
C          6.24634         3.64359         0.46186
C          7.42536         2.93774        -0.13880
C          8.78704         3.57434         0.17250
C          9.93483         2.76142        -0.37000
C         -8.64254         4.94821        -0.11022
C         -7.47253         5.82620         0.26858
C         -6.17893         5.01398         0.45347
C         -4.90587         5.81395         0.83213
C         -3.63548         5.28324         0.16616
C         -2.33194         6.05251         0.41439
C         -1.17540         5.26549         0.99194
C         -0.01471         5.95633         1.12997
C          1.25308         5.23842         1.36228
C          2.47918         5.89754         0.84153
C          3.86251         5.22462         0.85528
C          4.47123         5.57558        -0.48856
C          6.76451         4.88602         1.18135
C          7.60454         5.73561         0.22800
C          8.70596         5.05028        -0.19864
C         -7.19965         7.02643        -0.62763
C         -6.09519         7.79160        -0.41138
C         -5.13883         7.37933         0.69272
C         -3.78722         8.14503         0.69783
C         -2.49838         7.45482         0.98113
C         -1.19927         8.23414         0.93562
C          0.07523         7.46461         1.08538
C          1.36961         8.11264         0.59272
C          2.30408         7.11974        -0.08972
C          3.60288         7.90759        -0.07320
C          4.75471         7.07441        -0.68992
C          6.09958         7.72827        -0.39846
C          7.30972         7.12503        -0.11126
C         -5.99913         9.17950        -0.86850
C         -4.94663         9.98403        -0.59678
C         -3.62767         9.39853        -0.16573
C         -2.53446        10.33999         0.40185
C         -1.20732         9.59211         0.34278
C         -0.05505        10.09918        -0.20603
C          1.19246         9.38889        -0.20892
C          2.35056         9.94392        -0.77625
C          3.58292         9.26157        -0.72785
C          4.86477         9.82767        -0.96662
C          6.04501         9.13620        -0.71548
C        -10.87786        -0.74851        -0.29973
C         -9.72469        -1.50151        -0.85318
C         -8.47743        -0.71963        -1.18788
C         -7.16849        -1.45864        -1.33292
C         -5.88771        -0.67066        -1.29998
C         -4.54590        -1.45132        -1.32658
C         -3.36341        -0.68871        -0.61435
C         -2.41117        -1.45780         0.29543
C         -1.16980        -0.69390         0.74455
C          0.02415        -1.46714         1.23098
C          1.21345        -0.71393         1.77518
C          2.52194        -1.44299         1.64249
C          3.65963        -0.72001         0.95357
C          4.92473        -1.47415         0.63051
C          6.12391        -0.70545         0.18663
C          7.24467        -1.36269        -0.27153
C          8.46464        -0.66707        -0.64013
C          9.69330        -1.42531        -1.00202
C         10.98554        -0.76813        -0.71022
C         -9.57885        -2.92875        -0.56839
C         -8.37901        -3.61657        -0.68365
C         -7.12544        -2.94018        -1.12523
C         -5.80448        -3.61018        -0.89313
C         -4.62509        -2.92864        -0.90665
C         -3.25341        -3.61590        -0.86555
C         -2.32923        -2.95499         0.18288
C         -0.97060        -3.66495         0.42330
C         -0.13394        -2.97981         1.55071
C          1.21764        -3.73053         1.75247
C          2.52062        -2.97957         1.63898
C          3.83629        -3.69233         1.40604
C          5.08308        -2.92810         1.04787
C          6.29895        -3.66733         0.50580
C          7.33251        -2.85487        -0.20044
C          8.13339        -3.42853        -1.35755
C          9.56363        -2.86710        -1.34985
C         -8.33340        -4.99942        -0.40365
C         -7.15959        -5.77365        -0.55339
C         -5.87611        -5.10468        -0.91622
C         -4.60578        -5.90965        -0.88480
C         -3.29156        -5.17922        -0.73592
C         -2.13538        -5.95000        -0.15109
C         -1.16173        -5.17370         0.71610
C         -0.08363        -5.93639         1.42222
C          1.24049        -5.29115         1.81307
C          2.42836        -5.86403         1.03918
C          3.82903        -5.23864         1.27967
C          4.77605        -5.70968         0.12979
C          6.23623        -5.20135         0.28536
C          7.04890        -5.65215        -0.92752
C          8.02007        -4.91894        -1.50033
C         -7.23664        -7.14726        -0.38905
C         -6.06373        -8.01707        -0.34931
C         -4.70460        -7.36770        -0.46353
C         -3.60203        -7.98147         0.36556
C         -2.19705        -7.50578        -0.04695
C         -1.41526        -8.10293         1.11660
C         -0.08494        -7.44145         1.36264
C          1.16872        -8.14984         1.00065
C          2.38893        -7.32867         0.71530
C          3.67890        -8.07293         0.51758
C          4.84686        -7.25224         0.09396
C          5.89856        -7.95755        -0.77545
C          6.69847        -6.95684        -1.61657
C         -6.17668        -9.31519         0.35427
C         -5.07608       -10.03548         0.66551
C         -3.73719        -9.48458         0.55496
C         -2.63017       -10.23399         0.83027
C         -1.32385        -9.59323         0.85156
C         -0.17442       -10.23169         0.52373
C          1.08786        -9.47568         0.19525
C          2.35296       -10.20795         0.45761
C          3.67172        -9.60570         0.13525
C          4.14856        -9.67827        -1.31298
C          5.21904        -8.96771        -1.68992
O          1.02426        -9.07557        -1.19502
H          0.11183        -8.73878        -1.37732
O         -1.26319        -5.45537         2.13607
O         -3.58066         4.82764        -1.20877
O         -2.30426        -7.87514         2.27748
O          9.74786        -1.93021        -2.43274
O         -3.27765         8.00019         2.07496
O         -3.02520        -2.32704         1.29032
O         -1.08507         3.38147        -0.56639
O         -0.07388        -1.01860        -0.16503
O         -3.61758        -7.42122         1.72979
O          2.08810         1.16935         2.91619
O          6.56503         3.72998        -0.97290
O          0.72542        -8.13945         2.37120
O          6.30637         1.14494        -1.37890
O         -2.59102         1.07650         1.77659
O         -2.68576         0.14671        -1.60492
O         -2.17409        -5.65446        -1.56679
O         -7.19223        -2.36572        -2.47328
O          2.09302         6.07013         2.23203
O          3.83686        -1.35715        -0.36221
O          3.51501         3.52155         2.63361
O         -0.58077         1.30915         3.24896
H          0.07413         1.78418         3.80997
O          1.97507        -1.09348         2.94094
O          2.23762         8.54358         1.73200
O          4.25008        -5.14386        -1.07326
H          4.62952        -5.62360        -1.85355
O          4.43361         4.83227        -1.44934
H          4.80963         6.39263        -2.54591
O          1.94457        -3.35390         2.94027
O          7.56973        -3.31794         1.15876
O         -7.88835         6.35317         1.54646
H         -7.18982         6.99967         1.86819
O         -1.81378         6.43277        -0.90297
H         -1.94097         5.65704        -1.50166
O         -5.19432        -8.17669        -1.55510
O          6.82315        -5.87528         1.41305
H          6.20322        -5.77739         2.17724
O          4.79172        -3.23390         2.43007
O         -5.93419         0.29423        -2.41589
O        -10.13817         2.67231         1.05852
H         -9.32110         2.33078         1.48443
O         -2.81430        10.71302         1.74418
H         -2.94585         9.88883         2.27336
O          2.12810        -6.29918        -0.30610
O         -5.26910        -5.64583        -2.14508
O         -5.76569         7.79629         1.88912
O         -0.50389         8.14051         2.23433
O          6.80190         5.01827         2.38122
O          4.75115        -7.81016         1.44256
O          2.95911         1.00197        -0.57946
H          3.38998         0.36083        -1.19350
O          5.87544        -6.60372        -2.75244
H          6.36150        -5.94579        -3.29399
O         -9.40579        -1.06086        -2.24790
O        -10.07138         1.59718        -2.40262
H        -10.02826         0.69997        -2.81117
O         -7.86951         0.99175         0.51488
O          4.54396         7.24639        -2.12284
O          4.64481       -10.28797         0.92559
H          5.52445        -9.85897         0.77390
O          0.38949         3.62463         2.89007
O         -3.01843         8.92363        -1.40948
H         -3.65551         8.34003        -1.87371
O         -7.14337         3.29391        -2.31242
H         -6.25130         2.98265        -2.60167
O         -0.83906        -3.03980         2.78859
H         -0.21386        -2.79093         3.50381
O         -0.19034        -3.56569        -0.77070
H         -0.79765        -3.60634        -1.55261
O         -4.58094         2.58531        -1.85263
O          1.49019        -5.67543         3.17701
H          0.69301        -5.46131         3.70742
O         -2.56592        -3.38234        -2.11472
H         -3.12673        -2.83785        -2.72224
O          3.65360         8.25859         1.35853
O         -6.34746         3.81559         1.27249
O          6.81024        -8.64790         0.10634
H          7.02615        -8.02435         0.83952
O         -4.63813         5.59678         2.22058
H         -5.05043         6.38675         2.67680
O          1.88701         6.71291        -1.38459
H          2.61877         6.89056        -2.02392
O          7.46030        -2.93734        -2.54437
H          8.09338        -2.32342        -2.99733
O          8.93074         3.45454         1.61953
H          9.69489         3.99653         1.90646
O          4.30595        -5.71762         2.54215
H          3.66021        -5.44194         3.23245
O         -4.21226        -1.51271        -2.72736
H         -4.50721        -0.66573        -3.14193
O          4.59755         5.94444         1.84207
H          4.10107         5.87476         2.69015
O         -1.72247        -8.07473        -1.26260
H         -1.97574        -7.45428        -1.99103
H         11.90211        -1.37411        -0.74834
H         12.01717         1.07740        -0.46420
H         10.93419         3.22554        -0.36294
H          9.44335         5.49587        -0.88438
H          8.19281         7.78772        -0.16142
H          6.99656         9.68743        -0.76728
H          4.92489        10.88415        -1.26791
H          2.29990        10.94092        -1.24000
H         -0.07374        11.09422        -0.67872
H         -2.47498        11.27185        -0.21473
H         -4.97443        11.04485        -0.88843
H         -6.89760         9.60810        -1.34065
H         -7.99348         7.38336        -1.30291
H         -9.62218         5.36266         0.17759
H        -10.72214         3.40386        -0.77925
H        -11.83822         1.11212        -0.00058
H        -11.69539        -1.32902         0.15451
H        -10.45971        -3.47225        -0.19446
H         -9.26440        -5.51072        -0.11875
H         -8.20672        -7.58666        -0.11191
H         -7.18313        -9.72310         0.52723
H         -5.17592       -11.04577         1.08897
H         -2.70981       -11.32223         0.96850
H         -0.20217       -11.30772         0.29437
H          2.35049       -10.96642         1.25558
H          3.67214       -10.39040        -2.00181
H          5.61909        -9.07562        -2.70948
H          7.63377        -7.45479        -1.99146
H          8.56423        -5.34902        -2.35953
H         10.41103        -3.56709        -1.18648
