         424
 CSIRO Nanostructure Databank - Neutral Graphene Oxide Data Set
C          1.37519         3.44561        -0.02927
C          0.20163         4.09162         0.36416
C          1.27440         6.27517         0.11028
C          0.14645         5.48069         0.43507
C          1.23766         7.72027         0.15197
C          0.03764         8.41718         0.45969
C          1.16879        10.56989         0.26668
C          0.00125         9.79094         0.50042
C          1.13523        12.00981         0.38871
C         -0.06982        12.71991         0.60231
C          1.13031        14.84083         0.66069
C         -0.07087        14.09396         0.74584
C          1.10923        16.31176         0.71033
C         -0.09244        17.03006         0.51465
C          1.10336        19.14845         0.62137
C         -0.10040        18.41278         0.51094
C          1.11349        20.59388         0.55102
C         -0.08554        21.34923         0.53783
C          1.16161        23.44750         0.38484
C         -0.06193        22.72551         0.46308
C          1.17304        24.89595         0.34347
C         -0.02924        25.64724         0.35675
C          1.20045        27.75549         0.33760
C         -0.01767        27.02652         0.36160
C          1.21998        29.19804         0.38542
C          0.03050        29.96131         0.51744
C          1.28874        32.05825         0.53514
C          0.06438        31.33709         0.60053
C          1.31473        33.51152         0.57164
C          0.12267        34.27920         0.72960
C          1.35639        36.36891         0.52574
C          0.14106        35.65845         0.70363
C          1.39351        37.79468         0.47573
C          3.73909         3.52983        -0.70265
C          2.52190         4.19222        -0.36477
C          3.62387         6.40440        -0.63628
C          2.47457         5.62712        -0.29529
C          3.60916         7.78966        -0.52432
C          2.40891         8.47257        -0.13816
C          3.60062        10.67299        -0.16327
C          2.38009         9.90848        -0.06039
C          3.58782        12.03522         0.15390
C          2.35976        12.74363         0.34764
C          3.61155        14.98874         0.30501
C          2.34356        14.16293         0.46919
C          3.53107        16.19491         1.26623
C          2.30931        17.02184         0.89309
C          3.58222        19.15395         0.71727
C          2.32716        18.43394         0.78361
C          3.56853        20.54671         0.48903
C          2.35484        21.28888         0.46769
C          3.63766        23.44164         0.31427
C          2.37907        22.72557         0.37266
C          3.64645        24.87051         0.28676
C          2.41074        25.59705         0.30137
C          3.66909        27.73650         0.23055
C          2.42122        27.02790         0.28102
C          3.67518        29.14499         0.24495
C          2.46664        29.88846         0.33981
C          3.74109        32.03190         0.23324
C          2.49325        31.32818         0.39764
C          3.76310        33.45343         0.21958
C          2.54376        34.19233         0.42041
C          3.78968        36.32768         0.23296
C          2.57391        35.63147         0.40235
C          3.80681        37.74280         0.12638
C          2.57631        38.46256         0.27015
C          6.12192         3.56953        -1.23425
C          4.89600         4.23313        -1.03787
C          6.11083         6.43531        -1.05737
C          4.80144         5.72375        -1.29378
C          6.10312         7.86821        -0.91402
C          4.78686         8.59931        -1.02877
C          6.06432        10.67541        -0.38921
C          4.85593        10.00365        -0.47155
C          6.05982        12.18132        -0.29028
C          4.89041        12.69938         0.53544
C          6.07993        14.87195         0.66500
C          4.87514        14.20203         0.51400
C          6.09004        16.28204         0.90217
C          4.84510        17.01417         1.36795
C          6.05473        19.09527         0.80975
C          4.81381        18.42751         0.82307
C          6.04842        20.57937         0.74171
C          4.84897        21.23932         0.11364
C          6.10218        23.42853         0.23968
C          4.85988        22.73650         0.29300
C          6.12068        24.85109         0.15839
C          4.88842        25.57697         0.20566
C          6.15476        27.68491         0.00697
C          4.90577        26.99856         0.17170
C          6.18164        29.10142        -0.08948
C          4.98525        29.86457         0.41009
C          6.12140        31.98271        -0.32799
C          4.94433        31.31441         0.01669
C          6.16200        33.39596        -0.25205
C          5.00591        34.11942         0.05665
C          6.18992        36.29221        -0.47902
C          5.10268        35.60187         0.30838
C          6.16637        37.67175        -0.58964
C          5.02037        38.40926        -0.18979
C          8.57745         3.65389        -1.58748
C          7.33857         4.28813        -1.38672
C          8.53516         6.48860        -1.36812
C          7.28759         5.72096        -1.19996
C          8.54563         7.81859        -0.70354
C          7.28600         8.58449        -0.76572
C          8.56575        10.65692        -0.24530
C          7.33026         9.99168        -0.49995
C          8.57246        12.07589         0.05400
C          7.36568        12.79515         0.16442
C          8.57029        14.84980         0.76171
C          7.35590        14.15727         0.55129
C          8.56855        16.27998         0.94756
C          7.30303        16.98986         0.94362
C          8.55242        19.19693         1.24336
C          7.27641        18.41510         1.00599
C          8.56883        20.48463         0.42047
C          7.33775        21.31254         0.68251
C          8.58529        23.39431         0.18048
C          7.35472        22.73292         0.28210
C          8.60534        24.81433        -0.00023
C          7.36804        25.52931         0.01547
C          8.59604        27.63118        -0.36332
C          7.37201        26.94906        -0.11099
C          8.55074        29.02469        -0.63200
C          7.35858        29.76483        -0.46905
C          8.58181        31.95824        -0.94645
C          7.26727        31.20947        -0.94012
C          8.63280        33.33631        -0.86210
C          7.47588        34.14009        -0.30848
C          8.61367        36.23500        -1.11168
C          7.30798        35.47104        -1.07047
C          8.62920        37.64862        -1.14732
C          7.32745        38.41802        -1.21692
C         11.02251         3.65691        -1.67061
C          9.82728         4.34414        -1.71571
C         11.09122         6.69639        -1.74869
C          9.80681         5.83615        -1.79811
C         11.13199         7.68766        -0.55432
C          9.83202         8.47536        -0.35014
C         11.03932        10.62915        -0.07015
C          9.82758         9.95744        -0.23335
C         11.05106        12.04889         0.20423
C          9.81331        12.75433         0.29758
C         11.04867        14.80960         0.86599
C          9.81517        14.14016         0.63789
C         11.02747        16.22219         1.41610
C          9.77336        16.98386         1.08244
C         11.02226        19.11009         0.91528
C          9.81688        18.40526         1.02522
C         11.04651        20.55235         0.72590
C          9.84764        21.27432         0.55414
C         11.08130        23.37818         0.24805
C          9.84703        22.67003         0.32129
C         11.10887        24.80023        -0.03094
C          9.84612        25.51159        -0.14744
C         11.07931        27.61351        -0.60933
C          9.83690        26.90154        -0.39355
C         11.04749        28.94684        -0.97496
C          9.77282        29.67272        -1.13462
C         11.07755        31.89750        -1.44507
C          9.76573        31.17656        -1.34530
C         11.08720        33.38458        -1.43388
C          9.81652        34.09250        -1.16709
C         11.09603        36.21842        -1.55782
C          9.81740        35.49477        -1.18775
C         11.09073        37.67133        -1.14184
C          9.84145        38.34448        -1.09790
C         13.54343         3.62844        -1.33896
C         12.33219         4.31993        -1.76315
C         13.58453         6.49690        -1.23880
C         12.36719         5.85897        -1.74096
C         13.56179         7.90271        -0.93097
C         12.33956         8.57773        -0.71734
C         13.51151        10.65704        -0.20086
C         12.31757         9.95461        -0.31009
C         13.56243        11.95420         0.55380
C         12.26677        12.72908         0.43548
C         13.55252        14.77312         1.07010
C         12.25766        14.10022         0.76912
C         13.54951        16.27414         1.23347
C         12.28163        17.00326         1.12422
C         13.52164        19.11613         0.91810
C         12.27523        18.37686         0.95821
C         13.51437        20.52623         0.79975
C         12.28377        21.25591         0.65918
C         13.56181        23.35819         0.33751
C         12.30416        22.66354         0.42490
C         13.59444        24.77532        -0.02175
C         12.32898        25.48089        -0.17238
C         13.56609        27.55047        -0.72136
C         12.36399        26.90342        -0.48803
C         13.59307        28.97444        -1.22637
C         12.31462        29.71141        -0.90011
C         13.60205        31.92711        -1.06331
C         12.31767        31.19262        -1.01448
C         13.58494        33.34174        -1.04115
C         12.36304        34.08905        -1.16802
C         13.56143        36.20116        -0.95245
C         12.35253        35.47947        -1.14635
C         13.54575        37.63881        -0.88140
C         12.28907        38.33048        -0.92658
C         15.96422         3.60297        -0.88915
C         14.74684         4.30655        -1.16106
C         15.98950         6.44052        -0.79761
C         14.77136         5.76131        -1.11777
C         16.00174         7.87614        -0.70974
C         14.79557         8.58986        -0.78650
C         16.04372        10.73260        -0.36132
C         14.76495        10.09157        -0.80768
C         16.03783        12.13731        -0.04911
C         14.81075        12.77838         0.29458
C         16.03180        14.88266         0.65357
C         14.81864        14.13309         0.64597
C         16.02230        16.30260         0.89210
C         14.80404        17.00177         1.02567
C         15.99088        19.14934         1.06244
C         14.76413        18.41965         0.98829
C         15.95560        20.55624         1.06463
C         14.74494        21.24533         0.83924
C         16.02909        23.33244         0.48046
C         14.75545        22.66004         0.57044
C         16.10523        24.66442        -0.22564
C         14.80039        25.41656        -0.25451
C         16.17221        27.58443        -0.72904
C         14.83828        26.76107        -0.95704
C         15.98956        29.07772        -0.44361
C         14.82069        29.76030        -0.79674
C         16.01947        31.92528        -0.63113
C         14.80326        31.19585        -0.82606
C         16.03214        33.35718        -0.69317
C         14.80988        34.06532        -0.86997
C         16.01439        36.20766        -0.67851
C         14.78920        35.49032        -0.81888
C         15.99136        37.65277        -0.61139
C         14.74814        38.32992        -0.69660
C         18.38664         3.55931        -0.38976
C         17.15739         4.27204        -0.63140
C         18.40510         6.40280        -0.32161
C         17.18357         5.71425        -0.58908
C         18.43617         7.83556        -0.28182
C         17.23461         8.56693        -0.46787
C         18.50330        10.67992        -0.24481
C         17.24346         9.99933        -0.36650
C         18.47777        12.15401        -0.59907
C         17.25728        12.85851        -0.02644
C         18.49582        14.97097         0.41116
C         17.26954        14.23204         0.32934
C         18.50248        16.33890         0.77258
C         17.25334        17.03970         0.91709
C         18.48018        19.17457         1.15875
C         17.24217        18.43983         1.08886
C         18.47071        20.58873         1.25489
C         17.17385        21.33161         1.46939
C         18.43077        23.44653         0.97114
C         17.18971        22.71655         0.88510
C         18.39491        24.87154         0.83255
C         17.23617        25.51903         0.31174
C         18.33001        27.66913         0.58759
C         17.19978        26.90986         0.17642
C         18.32710        29.18310         0.58105
C         17.15595        29.82101        -0.12166
C         18.46426        31.94512        -0.16401
C         17.20684        31.22037        -0.29710
C         18.49265        33.36218        -0.31524
C         17.25722        34.08171        -0.55352
C         18.48908        36.27109        -0.63043
C         17.23513        35.49850        -0.61651
C         18.43921        37.71857        -0.35127
C         17.18778        38.36890        -0.40101
C         19.55126         4.22471        -0.13034
C         20.79523         6.35980         0.17978
C         19.59720         5.66221        -0.09033
C         20.82905         7.74866         0.20445
C         19.66793         8.52068        -0.03033
C         20.94438        10.70350        -0.01604
C         19.68737         9.97026        -0.08334
C         21.00468        12.04711        -0.13700
C         19.80135        12.87881        -0.35341
C         20.98760        14.96857         0.66380
C         19.78617        14.31510         0.11845
C         20.95216        16.28211         1.01135
C         19.73201        17.04547         0.96076
C         20.92557        19.22926         1.18572
C         19.72450        18.46918         1.11948
C         20.90029        20.60703         1.25593
C         19.67177        21.31811         1.29163
C         20.78131        23.55925         1.59254
C         19.62905        22.78276         1.30473
C         20.73632        24.93680         1.56245
C         19.55208        25.62760         1.17523
C         20.66077        27.87198         1.37042
C         19.48966        27.04935         1.07187
C         20.77842        29.12005         0.88559
C         19.66176        29.71816         0.05685
C         20.88211        31.93353         0.09494
C         19.67500        31.23518         0.03265
C         20.90748        33.32818         0.01870
C         19.73239        34.05300        -0.18787
C         20.89068        36.31714         0.20843
C         19.80481        35.52675        -0.37239
C         20.81733        37.68931         0.25457
C         19.62861        38.39564        -0.05404
O          6.60693        21.16054         1.95678
O          8.90871         6.41952        -2.79721
O         12.24238        30.53389         0.32481
O         11.17534        32.62292        -2.71214
O         13.60890        15.34762         2.42791
O         12.53341         5.13962        -2.99450
O         19.98948        13.94862        -1.34204
O         19.40187        35.92729        -1.72580
O          9.03439         7.80403         0.70142
O          9.56074        30.27108        -2.49192
O         18.23562        29.61655         1.96967
H         17.38889        29.28700         2.33613
O         11.37402         6.87470         0.62273
H         10.58731         6.97588         1.21155
O          7.86812        34.44619         1.05480
H          7.08648        34.84716         1.51717
O          8.49187        20.06463        -0.97251
H          8.44215        20.86522        -1.53578
O          5.52355        35.71659         1.74629
H          5.50774        36.67318         1.96804
O         11.12496        36.23902        -3.02663
H         11.12565        35.30628        -3.33421
O         14.77134        26.41779        -2.40040
H         15.61701        26.73807        -2.80626
O          3.65457        15.51200        -1.05034
H          3.89240        14.77512        -1.65259
O         11.13720         7.51440        -2.92859
H         11.23772         6.91360        -3.69828
O         17.05529        21.50857         2.93273
H         17.02430        20.61340         3.33252
O         16.87407        27.60985        -2.02023
H         17.74251        28.05407        -1.88654
O          7.46278        39.71642        -0.63289
H          7.64763        39.60529         0.32176
O          5.05680        17.23557         2.81386
H          5.82854        17.83571         2.91084
O          3.25216        15.58931         2.54858
H          3.59198        16.20194         3.24031
O          5.83165        12.66913        -1.65124
H          6.45343        12.20332        -2.24931
O         18.26347        12.16100        -2.04986
H         18.68745        12.98990        -2.37789
O          4.55332         5.88070        -2.74588
H          5.29288         5.43708        -3.21550
O         16.44227        24.33885        -1.62374
H         15.78634        24.79952        -2.19898
O         19.77501        29.24908        -1.31777
H         20.60670        29.60541        -1.69448
O         14.67454        10.44913        -2.25782
H         15.54822        10.25012        -2.65978
O          5.13517        12.30631         1.91990
H          4.46507        12.75152         2.48095
O          5.18732        29.91789         1.88231
H          5.16061        28.99414         2.21278
O          5.02671        21.00956        -1.33262
H          4.20984        21.31108        -1.78386
O          8.58694        19.57034         2.64998
H          8.81764        18.77226         3.17028
O          4.55466         8.75439        -2.47467
H          4.46870         7.83672        -2.83810
O         13.66068        11.57432         1.97919
H         13.61738        12.40119         2.50672
O         13.61015        28.90470        -2.68741
H         13.96613        28.01612        -2.93619
O         10.99418        16.06389         2.88633
H         11.88191        15.70319         3.13647
O          6.94355        35.12071        -2.43709
H          6.87973        35.94647        -2.96017
O          6.91094        31.09216        -2.36076
H          7.71308        30.73912        -2.82021
H          1.41259         2.34790        -0.07760
H         -0.68673         3.49896         0.62372
H         -0.79217         5.95348         0.75265
H         -0.88523         7.85975         0.66645
H         -0.94749        10.28414         0.74890
H         -1.02805        12.18610         0.64928
H         -1.02579        14.60649         0.92433
H         -1.03859        16.49442         0.35921
H         -1.05634        18.93389         0.36902
H         -1.05759        20.84353         0.60731
H         -1.01866        23.26305         0.47369
H         -1.00052        25.13637         0.37267
H         -0.97806        27.55787         0.38199
H         -0.94441        29.45854         0.56577
H         -0.88636        31.87610         0.70521
H         -0.84126        33.77163         0.86759
H         -0.79686        36.22186         0.81492
H          0.45305        38.35409         0.58659
H          3.77971         2.43207        -0.62707
H          2.59237        39.56013         0.20480
H          6.14755         2.46971        -1.19636
H          5.03442        39.50454        -0.28260
H          8.59936         2.55427        -1.63034
H          7.08867        38.58810        -2.30534
H         11.00949         2.56862        -1.50629
H          9.82107        39.43942        -0.98584
H         13.49529         2.54514        -1.15180
H         12.28302        39.41465        -0.73354
H         15.95405         2.50275        -0.90877
H         14.73535        39.42780        -0.62586
H         18.37024         2.45984        -0.41837
H         17.14378        39.46010        -0.26663
H         20.48065         3.66528         0.05217
H         21.71695         5.79017         0.36790
H         21.78641         8.24344         0.41658
H         21.87984        10.14459         0.12119
H         21.98032        12.55217        -0.10810
H         21.93932        14.42073         0.68497
H         21.87861        16.76921         1.34584
H         21.89811        18.72047         1.14806
H         21.85177        21.15608         1.26937
H         21.71900        23.06313         1.87831
H         21.64270        25.50200         1.81661
H         21.48049        27.43966         1.96139
H         21.69310        29.69467         1.08834
H         21.83566        31.39866         0.20035
H         21.87334        33.84758         0.07904
H         21.76016        35.80530         0.64442
H         21.67742        38.25858         0.63613
H         19.60557        39.48700         0.07713
