         210
 CSIRO Nanostructure Databank - Neutral Graphene Oxide Data Set
C         30.40888        31.65850        -0.58823
C         30.40397        32.89379        -0.66894
C         30.47754        36.14787        -1.11933
C         30.63304        37.33498        -1.42597
C         30.67037        40.47047        -1.41918
C         30.60220        41.71579        -1.32529
C         32.78428        28.96653         0.39595
C         31.66500        29.47177         0.07960
C         32.78547        31.54624        -0.27007
C         31.54509        30.82368        -0.27685
C         32.85794        33.01596        -0.69586
C         31.53141        33.80960        -0.47797
C         32.93159        35.92693        -1.06382
C         31.57616        35.27414        -0.67142
C         32.94198        37.44717        -0.92827
C         31.77340        38.19352        -1.23397
C         32.96557        40.33207        -0.89986
C         31.76627        39.59666        -1.20811
C         32.95778        41.79138        -0.79523
C         31.71093        42.53237        -0.97965
C         32.91122        44.47376        -0.39686
C         31.83821        43.91600        -0.73759
C         35.40615        27.38569         0.84677
C         35.35236        28.91391         0.83578
C         34.05916        29.52208         0.39076
C         35.28424        31.62677        -0.13895
C         34.01644        30.89630         0.00593
C         35.32307        33.00714        -0.18173
C         34.01778        33.76621        -0.00057
C         35.30199        35.91012        -0.23448
C         34.11929        35.23410        -0.41591
C         35.36083        37.38235        -0.31607
C         34.13627        38.14192        -0.63381
C         35.40662        40.27149        -0.42816
C         34.12808        39.56331        -0.62951
C         35.44147        41.77377        -0.35673
C         34.15292        42.49446        -0.44660
C         35.39104        44.57644         0.16097
C         34.18820        43.90124        -0.20248
C         35.55226        45.96076         0.40736
C         37.83758        27.30741         0.46394
C         36.49375        26.83122         0.65176
C         37.83328        28.69439         0.19549
C         36.48693        29.33239        -0.15209
C         37.84912        31.58806        -0.21926
C         36.53090        30.84763        -0.30837
C         37.79943        33.05020        -0.02802
C         36.57166        33.73871        -0.11388
C         37.75187        35.86144         0.24469
C         36.55400        35.17520         0.01492
C         37.70273        37.31294         0.65240
C         36.51081        38.03607         0.05608
C         37.77401        40.24248         0.54724
C         36.51026        39.50600         0.21627
C         37.82629        41.72487         0.42048
C         36.64310        42.45285         0.19362
C         37.85887        44.55503         0.66324
C         36.63803        43.87290         0.33813
C         37.90340        45.98570         0.86720
C         36.60699        46.55549         0.72565
C         40.26702        24.52647         0.89624
C         39.21807        25.20918         0.83575
C         40.29783        27.30027         0.74493
C         39.03669        26.60251         0.68163
C         40.25746        28.71490         0.60586
C         39.05979        29.41567         0.27075
C         40.27396        31.59408         0.28201
C         39.08446        30.85432         0.13282
C         40.26167        33.03898         0.22752
C         39.02440        33.75226         0.15255
C         40.23699        35.89906         0.34740
C         39.00314        35.17700         0.26760
C         40.23465        37.34097         0.40364
C         39.01403        38.06412         0.46551
C         40.25784        40.19464         0.52127
C         39.03585        39.47055         0.52741
C         40.28086        41.62773         0.69266
C         39.05237        42.38638         0.67457
C         40.30613        44.50283         1.02373
C         39.08386        43.82376         0.78699
C         40.36708        45.92083         1.15199
C         39.11131        46.64047         1.13480
C         40.34447        48.70210         1.65414
C         39.33694        48.02887         1.36665
C         42.85924        24.55265         0.83349
C         41.56175        25.10574         0.88835
C         42.79284        27.28019         0.87692
C         41.55498        26.56771         0.87367
C         42.79804        28.74588         1.05011
C         41.46993        29.49892         0.88877
C         42.74124        31.61205         0.50759
C         41.51350        30.92586         0.54551
C         42.73427        33.05365         0.34600
C         41.48548        33.75572         0.31043
C         42.71268        35.90649         0.34161
C         41.47103        35.19182         0.32082
C         42.71255        37.34594         0.32946
C         41.47625        38.05059         0.37670
C         42.71583        40.19577         0.38999
C         41.48405        39.48017         0.43272
C         42.73578        41.60812         0.60209
C         41.51176        42.29274         0.82379
C         42.82614        44.43468         1.12044
C         41.53472        43.69690         1.35874
C         42.83447        45.84718         1.32916
C         41.62071        46.60735         1.29801
C         42.94324        48.59401         1.94297
C         41.69211        48.17926         1.18814
C         43.91485        25.23293         0.78848
C         45.27946        27.38635         0.80995
C         44.06732        26.63799         0.80454
C         45.29705        28.80413         0.81968
C         44.03904        29.50774         0.81711
C         45.25265        31.57946         0.30058
C         43.98396        30.88588         0.61542
C         45.22749        33.07799         0.16815
C         43.94245        33.79178         0.32231
C         45.22736        35.95563         0.57129
C         43.93671        35.19927         0.34220
C         45.18757        37.38715         0.10597
C         43.94018        38.06655         0.19654
C         45.15181        40.21258         0.00972
C         43.93573        39.49385         0.18584
C         45.17332        41.62774         0.20827
C         43.98337        42.30882         0.58543
C         45.29186        44.38003         0.92765
C         44.01933        43.72255         0.87771
C         45.30958        45.75581         1.37557
C         44.12059        46.47080         1.55224
C         43.94092        47.85651         1.84384
C         47.74291        27.40806         0.82819
C         46.61707        26.88599         0.84970
C         47.86989        28.85937         1.28156
C         46.54664        29.55192         0.87540
C         47.75712        31.69715         0.55326
C         46.53823        30.90987         0.61609
C         47.74237        33.09429         0.27030
C         46.49778        33.82908         0.23227
C         47.63715        35.95079        -0.21021
C         46.47242        35.21612         0.15691
C         47.60641        37.34320        -0.39790
C         46.36633        38.07805        -0.21933
C         47.49840        40.25058        -0.75959
C         46.34990        39.51816        -0.33576
C         47.53698        41.68334        -0.54906
C         46.41530        42.32853         0.06279
C         47.77782        44.32133         0.61735
C         46.48776        43.68897         0.53581
C         47.69487        45.61582         1.20079
C         46.64860        46.22658         1.50204
C         50.29430        29.15437         0.34781
C         49.07629        29.59261         0.75267
C         50.20115        31.83120         0.67781
C         49.01478        31.05468         0.71891
C         50.20531        33.15385         0.17016
C         48.95770        33.78944         0.01458
C         50.08595        35.92039        -0.94070
C         48.85537        35.17179        -0.52131
C         49.99048        37.39596        -1.16405
C         48.75946        38.05575        -0.89703
C         49.65970        39.98917        -2.00034
C         48.63057        39.44778        -1.21678
C         49.75228        42.14529        -1.66362
C         48.72198        42.50992        -0.75975
C         50.21807        44.21275        -0.16598
C         48.89652        43.72209        -0.00338
C         51.40385        29.37077        -0.32653
C         52.63477        31.63603        -0.68044
C         52.00425        30.57344         0.05184
C         52.51875        32.86689        -0.57503
C         51.49051        33.84885        -0.22407
C         52.43070        36.03080        -1.49877
C         51.44406        35.26295        -0.70044
C         52.26161        37.23013        -1.76344
C         51.11016        38.09278        -1.71696
C         51.90428        40.45136        -2.48511
C         50.95542        39.42556        -2.14002
C         51.99014        41.67102        -2.24511
C         51.09790        42.62532        -1.66109
C         51.20191        43.75509        -0.80436
O         51.82222        34.97482         0.65315
O         37.26467        31.18993        -1.53297
O         45.22716        32.20370        -1.03534
O         49.28956        35.20975        -1.94686
O         51.37394        31.24123         1.18653
O         42.04102        29.20019         2.21616
O         35.80739        41.04235        -1.60935
O         36.80035        39.87830         1.62306
O         49.40853        41.20828        -2.65159
O         31.48284        34.71501         0.64492
O         35.68658        29.39338         2.12826
H         34.95307        29.19381         2.74625
O         41.47740        43.51544         2.83662
H         41.48449        44.41070         3.23927
O         37.46125        37.28501         2.09898
H         37.26115        38.21744         2.36608
O         33.73494        33.74273         1.42097
H         34.39005        34.30938         1.87905
O         33.03585        35.66605        -2.49324
H         33.93539        35.91317        -2.79299
O         33.13874        33.02845        -2.10340
H         32.44125        32.52404        -2.57190
O         41.85299        48.51820        -0.16366
H         41.90309        49.49189        -0.25137
O         45.35295        36.04547         2.04544
H         44.60083        36.58477         2.37215
O         47.92513        28.88443         2.70482
H         48.76988        28.48564         2.99964
O         36.08787        28.81082        -1.43733
H         36.58904        29.31110        -2.11951
