         618
 CSIRO Nanostructure Databank - Neutral Graphene Oxide Data Set
C         22.94526        69.85938         1.13121
C         22.91302        71.23879         1.23112
C         21.77988        71.97160         1.72695
C         23.08325        74.05448         1.81747
C         21.87126        73.31728         1.99302
C         25.42217        65.56468         0.72215
C         25.39308        66.97970         0.75143
C         24.18198        67.70599         0.88833
C         25.38797        69.81657         0.72091
C         24.16165        69.11883         0.87701
C         25.38695        71.28306         0.62879
C         24.10664        72.03475         0.88243
C         25.46905        74.13959         1.11163
C         24.21533        73.45025         1.30370
C         27.89036        61.27582         0.58284
C         27.85372        62.70415         0.52647
C         26.64943        63.42400         0.58268
C         27.87137        65.56080         0.44075
C         26.63559        64.84724         0.57967
C         27.86377        66.99618         0.46282
C         26.63290        67.69677         0.63306
C         27.85032        69.82458         0.40597
C         26.62729        69.11778         0.62097
C         27.81529        71.29395         0.27327
C         26.68245        71.97594         0.99492
C         27.92653        74.14510         0.73790
C         26.65783        73.47887         0.85689
C         30.33258        56.99287         0.17822
C         30.32972        58.37081         0.37634
C         29.03944        59.06751         0.74185
C         30.33425        61.26346         0.56416
C         29.08623        60.57310         0.59662
C         30.32759        62.69941         0.47249
C         29.09767        63.41244         0.43633
C         30.33962        65.52078         0.17440
C         29.10628        64.83586         0.34247
C         30.29605        66.97789        -0.04200
C         29.06923        67.72351         0.29189
C         30.31948        69.90718         0.12374
C         29.07186        69.14549         0.26280
C         30.34094        71.27132         0.02690
C         29.08622        72.05227         0.04519
C         30.39089        74.12801         0.55337
C         29.11403        73.48241         0.45705
C         32.76694        52.72972        -0.55802
C         32.76124        54.16055        -0.50744
C         31.56883        54.87074        -0.28600
C         32.75031        57.02311        -0.13303
C         31.53526        56.28661        -0.09905
C         32.75994        58.39769         0.14005
C         31.55085        59.09939         0.36027
C         32.80568        61.23367         0.58504
C         31.57819        60.54170         0.53502
C         32.78421        62.69765         0.79277
C         31.54653        63.42669         0.48109
C         32.85819        65.52699         0.22941
C         31.57571        64.82980         0.30171
C         32.86447        66.95296        -0.16074
C         31.57603        67.72875        -0.19092
C         32.87278        69.90178         0.13817
C         31.59335        69.13561         0.38057
C         32.86878        71.30398         0.14352
C         31.61054        72.05694        -0.21940
C         32.84912        74.14312         0.46520
C         31.58695        73.46777         0.33874
C         35.22706        48.45362        -0.82664
C         35.17643        49.86231        -0.74134
C         33.97935        50.58742        -0.80593
C         35.18294        52.76039        -1.06807
C         33.93724        52.01234        -0.77679
C         35.22185        54.21940        -0.87698
C         34.00896        54.87507        -0.65577
C         35.30067        57.05899        -0.55867
C         33.98034        56.34101        -0.58772
C         35.34570        58.40127         0.09015
C         34.04565        59.09725         0.35862
C         35.29178        61.23700         0.38014
C         34.06355        60.56524         0.44279
C         35.35175        62.66055         0.77335
C         34.07921        63.45810         0.87441
C         35.33051        65.62067         0.49110
C         34.07345        64.89430         0.48073
C         35.36372        67.00654         0.37328
C         34.14176        67.73447        -0.00047
C         35.30679        69.91140         0.34694
C         34.09708        69.20513         0.17720
C         35.28900        71.31681         0.48168
C         34.08015        72.01784         0.31911
C         35.33269        74.16836         0.52442
C         34.05998        73.47510         0.41076
C         37.73741        44.29095        -0.35171
C         37.66376        45.59621        -0.79629
C         36.44063        46.31962        -0.78097
C         37.71440        48.39261        -0.39017
C         36.42628        47.72137        -0.74700
C         37.75917        49.88748        -0.34073
C         36.44035        50.60934        -0.51806
C         37.75724        52.74933        -0.84159
C         36.49774        52.01151        -0.99999
C         37.73910        54.16335        -0.89081
C         36.49818        54.89385        -0.85758
C         37.78150        56.99032        -0.56635
C         36.56180        56.29583        -0.63385
C         37.87145        58.42309        -0.07016
C         36.57452        59.18815        -0.07558
C         37.77963        61.32264        -0.15094
C         36.54745        60.56015         0.10701
C         37.79702        62.69692        -0.00559
C         36.65089        63.39126         0.63320
C         37.89179        65.64751         0.47439
C         36.60958        64.89449         0.71400
C         37.82547        67.09848         0.24686
C         36.59178        67.77426         0.36667
C         37.78076        69.93012         0.25395
C         36.56974        69.19499         0.34241
C         37.79777        71.36137         0.39486
C         36.54606        72.02202         0.92949
C         37.80530        74.24625         0.98188
C         36.51086        73.51307         0.70261
C         40.14942        40.31855         1.16848
C         40.16951        41.57511         0.53931
C         38.99544        42.39221         0.45899
C         40.14658        44.04423        -1.05410
C         38.95335        43.54518        -0.30147
C         40.18602        45.52217        -1.36273
C         38.87920        46.33971        -1.31526
C         40.31429        48.44134        -0.46928
C         39.00271        47.64778        -0.52455
C         40.18814        49.79962        -1.19282
C         38.98700        50.60046        -0.73230
C         40.22039        52.72962        -1.00208
C         38.97955        52.00376        -0.82800
C         40.21117        54.15154        -1.03679
C         38.97954        54.88201        -0.91555
C         40.22987        57.04336        -0.96753
C         38.99667        56.29911        -0.80595
C         40.22514        58.47480        -1.00154
C         39.01538        59.20970        -0.66280
C         40.08243        61.35424        -1.23728
C         38.94784        60.59065        -0.65999
C         40.13835        62.84884        -1.07500
C         38.94111        63.52633        -0.46155
C         40.24472        65.63132        -0.29414
C         39.08526        64.92737        -0.01428
C         40.24886        67.09120        -0.19412
C         39.01379        67.80625        -0.00165
C         40.21732        69.95864        -0.10563
C         39.00193        69.23121         0.02956
C         40.20731        71.38309        -0.06510
C         38.97271        72.08237         0.22110
C         40.19709        74.21681         0.27371
C         39.03741        73.53035         0.44743
C         42.51902        36.15552         2.40328
C         42.54174        37.46378         1.89606
C         41.33163        38.20784         1.82723
C         42.47070        39.88619         0.49140
C         41.29417        39.46570         1.19988
C         42.29502        41.00530        -0.36370
C         41.32867        41.97764        -0.21109
C         42.77143        44.02121        -1.10553
C         41.43932        43.26910        -0.98610
C         42.77713        45.44331        -1.08693
C         41.51147        46.22365        -1.23225
C         42.72160        48.38145        -1.02758
C         41.53648        47.68273        -0.97636
C         42.70866        49.84980        -1.04333
C         41.48698        50.56826        -1.07707
C         42.65488        52.73660        -1.21732
C         41.44813        52.00100        -1.08727
C         42.63755        54.14171        -1.27896
C         41.43408        54.87688        -1.17431
C         42.63771        57.06262        -1.42012
C         41.43828        56.32994        -1.19310
C         42.64019        58.46642        -1.47387
C         41.42622        59.16876        -1.30822
C         42.63571        61.42766        -1.69203
C         41.36182        60.62744        -1.55908
C         42.65425        62.85031        -1.24649
C         41.45684        63.53553        -0.98597
C         42.70044        65.62488        -0.61554
C         41.46452        64.92943        -0.66598
C         42.69468        67.06667        -0.28974
C         41.42405        67.81311        -0.33798
C         42.64853        69.98932        -0.36236
C         41.44077        69.25356        -0.30367
C         42.64525        71.38203        -0.17746
C         41.43090        72.08684        -0.13066
C         42.73665        74.26028        -0.11619
C         41.41175        73.57751        -0.36183
C         44.97791        33.34928         3.08702
C         43.77672        34.00988         2.97506
C         45.08739        36.16391         2.49105
C         43.73321        35.45790         2.80431
C         45.05626        37.42331         1.72375
C         43.78889        38.07965         1.45348
C         45.03251        40.09837         0.63174
C         43.74156        39.26438         0.69569
C         45.18848        41.27418        -0.33403
C         44.19091        41.92089        -1.02190
C         45.25067        44.11300        -0.99897
C         44.05013        43.36396        -1.13030
C         45.22133        45.51392        -0.95915
C         43.99095        46.19935        -1.06142
C         45.18316        48.39754        -1.11622
C         43.99581        47.67484        -1.09888
C         45.19954        49.84899        -1.14036
C         43.94250        50.53648        -1.16560
C         45.21911        52.73280        -1.35499
C         43.91115        51.98325        -1.40795
C         45.11855        54.15889        -0.86332
C         43.92028        54.86066        -1.46366
C         45.16875        57.07797        -1.18849
C         43.93089        56.35402        -1.57483
C         45.15762        58.50981        -1.20006
C         43.95185        59.11926        -1.93334
C         45.26648        61.39845        -1.78152
C         43.92543        60.67827        -1.90925
C         45.13049        62.85840        -1.38113
C         43.92398        63.54308        -1.18537
C         45.14502        65.72744        -0.88274
C         43.91720        64.96447        -0.87359
C         45.17449        67.09928        -0.74774
C         43.96771        67.85055        -0.39280
C         45.17288        70.06354        -0.50522
C         43.90742        69.30686        -0.82589
C         45.17805        71.38723        -0.15782
C         43.90911        72.08880         0.25303
C         45.20182        74.23661         0.03157
C         43.92428        73.57975        -0.00619
C         46.22064        33.98520         2.84174
C         47.48639        35.90096         1.92988
C         46.29193        35.31691         2.41191
C         47.51352        37.22551         1.45169
C         46.26464        37.93951         1.28359
C         47.57196        40.03539         0.98154
C         46.32526        39.24668         0.53216
C         47.67083        41.36266         0.28174
C         46.50207        41.91353        -0.39413
C         47.75687        44.11790        -0.51830
C         46.53988        43.39162        -0.86056
C         47.79366        45.53090        -1.02193
C         46.48986        46.28657        -0.66548
C         47.74871        48.41287        -0.96830
C         46.49140        47.66967        -1.34874
C         47.78053        49.89150        -1.19991
C         46.42335        50.56079        -1.07062
C         47.60904        52.72285        -0.78311
C         46.45048        51.99044        -1.02799
C         47.64419        54.17606        -1.01737
C         46.39022        54.93144        -1.01720
C         47.57372        57.02624        -0.50084
C         46.34812        56.32621        -0.92828
C         47.52764        58.54446        -0.48304
C         46.31201        59.23726        -0.94154
C         47.61866        61.45026        -0.89719
C         46.26686        60.74127        -0.81425
C         47.67057        62.81807        -1.00035
C         46.42581        63.55960        -1.34000
C         47.65463        65.65900        -0.55940
C         46.42782        65.03703        -1.13625
C         47.66355        67.14971        -0.43002
C         46.43555        67.86288        -0.86452
C         47.69054        70.00520        -0.24756
C         46.44788        69.36461        -0.71587
C         47.63463        71.37647         0.08667
C         46.42641        72.08654         0.04121
C         47.68399        74.20809         0.06734
C         46.42250        73.54036         0.10695
C         48.75412        37.85579         1.12892
C         50.06494        39.91962         0.72680
C         48.84854        39.22852         0.85628
C         50.11786        41.33527         0.53759
C         48.87481        42.03266         0.23106
C         50.12887        44.16188         0.08558
C         48.90777        43.44516        -0.11455
C         50.07360        45.65415         0.22117
C         48.97321        46.32932        -0.54258
C         50.24078        48.49021        -0.57317
C         48.93328        47.73189        -0.65604
C         50.14767        49.91895        -0.13205
C         48.83952        50.56084        -0.33271
C         50.06911        52.77795        -0.00153
C         48.79735        52.06537        -0.21904
C         50.13283        54.16992        -0.21813
C         48.95778        54.90652        -0.76908
C         50.05226        57.05854        -0.25405
C         48.87288        56.34953        -0.51527
C         50.05288        58.46069        -0.23968
C         48.85211        59.19769        -0.64922
C         50.12591        61.43531        -0.57326
C         48.88753        60.70715        -0.84116
C         50.14981        62.83171        -0.62251
C         48.92086        63.55212        -0.82602
C         50.14355        65.68138        -0.44366
C         48.93719        64.94692        -0.65303
C         50.13425        67.11730        -0.30656
C         48.94065        67.87150        -0.36099
C         50.15342        69.98944         0.08875
C         48.91190        69.28336        -0.20299
C         50.13613        71.32828         0.44890
C         48.84161        72.06704         0.66846
C         50.14868        74.15683         0.11465
C         48.90720        73.52285         0.22899
C         51.31707        42.05705         0.51380
C         52.56528        44.22348         0.40067
C         51.33119        43.47828         0.34656
C         52.60964        45.59801         0.22451
C         51.40066        46.33391         0.05401
C         52.55322        48.46112         0.37071
C         51.39668        47.73111         0.00281
C         52.32610        49.80161         1.04264
C         51.21874        50.61160         0.39042
C         52.41321        52.79262         0.75684
C         51.22407        52.07299         0.44010
C         52.45640        54.20871         0.58417
C         51.30980        54.87464         0.06898
C         52.55563        57.08973         0.12762
C         51.36694        56.31552        -0.37132
C         52.56133        58.45392         0.04075
C         51.28963        59.20329         0.00001
C         52.62543        61.40389        -0.21472
C         51.32315        60.70647        -0.14328
C         52.62642        62.82007        -0.30904
C         51.38765        63.54903        -0.43390
C         52.62668        65.68941        -0.31119
C         51.38231        64.96280        -0.39703
C         52.60343        67.08371        -0.22774
C         51.37930        67.83168        -0.17251
C         52.63548        69.93052         0.25312
C         51.38382        69.23280         0.01995
C         52.65776        71.34683         0.57932
C         51.37091        72.06672         0.90186
C         52.59615        74.18004         0.40749
C         51.39728        73.51098         0.40775
C         53.92272        46.34035         0.05414
C         54.95202        48.62403         0.41750
C         53.81408        47.82221         0.36891
C         54.88579        50.02159         0.70026
C         53.66521        50.52424         1.44579
C         54.87842        52.81398         1.49704
C         53.49758        52.09744         1.57332
C         54.88704        54.31649         1.30691
C         53.65960        55.00559         0.85148
C         54.95896        57.14757         0.72907
C         53.74711        56.36129         0.52364
C         55.02379        58.50819         0.48428
C         53.85464        59.18016        -0.19184
C         55.06167        61.35573        -0.03511
C         53.81837        60.68281        -0.05862
C         55.08899        62.78084        -0.15562
C         53.87387        63.51531        -0.27309
C         55.11411        65.63346        -0.24933
C         53.88462        64.95268        -0.30888
C         55.13138        67.07669        -0.12659
C         53.87251        67.85764        -0.41105
C         55.06497        69.90787         0.57005
C         53.82127        69.23574         0.17913
C         55.11345        71.37536         0.56774
C         53.84602        72.04916         0.64587
C         55.14471        74.20168         0.67896
C         53.83095        73.52299         0.97939
C         56.05772        50.76418         0.65141
C         57.31069        52.83868         0.91634
C         56.12125        52.13677         1.03452
C         57.39711        54.27269         1.09620
C         56.17522        54.99344         1.14655
C         57.46066        57.18629         1.37204
C         56.16169        56.45376         1.23320
C         57.50960        58.59018         0.89718
C         56.25875        59.26533         0.56563
C         57.60286        61.27635        -0.10790
C         56.27568        60.61242         0.19079
C         57.57963        62.78622        -0.03945
C         56.34997        63.47844        -0.12539
C         57.59564        65.58004        -0.18355
C         56.35291        64.90235        -0.17055
C         57.57589        67.04333        -0.26050
C         56.31617        67.74133         0.03061
C         57.59005        69.93562         0.40184
C         56.35484        69.15447         0.46850
C         57.58692        71.31873         0.50831
C         56.33415        72.04762         0.58115
C         57.61122        74.18502         0.49814
C         56.34170        73.51123         0.59360
C         58.62538        54.95306         1.07658
C         59.97278        57.12646         1.05538
C         58.75690        56.38443         1.54728
C         59.97712        58.49519         0.89171
C         58.72303        59.23289         0.82097
C         60.05616        61.36607         0.38303
C         58.73257        60.74055         0.76237
C         60.07144        62.75123         0.12614
C         58.81237        63.47192         0.00151
C         60.08768        65.61675        -0.07636
C         58.82645        64.89688        -0.09476
C         60.12025        67.03078        -0.07745
C         58.85992        67.79300        -0.19801
C         60.13130        69.90958         0.43288
C         58.84469        69.17362         0.36485
C         60.06250        71.38034         0.47910
C         58.85772        72.04518         0.51037
C         60.07945        74.20515         0.37425
C         58.83675        73.51097         0.48205
C         61.20616        59.22713         0.68030
C         62.59531        61.25437         0.21501
C         61.25039        60.59560         0.45808
C         62.55693        62.76911         0.15271
C         61.31170        63.46717         0.05458
C         62.55388        65.61853        -0.07608
C         61.32102        64.89862        -0.03529
C         62.54703        67.03704        -0.11714
C         61.33345        67.74505        -0.05866
C         62.60731        69.95634         0.08330
C         61.31509        69.25166        -0.24726
C         62.59889        71.34487         0.30014
C         61.35921        72.08454         0.76096
C         62.55635        74.21373         0.30530
C         61.32845        73.55139         0.40579
C         63.75060        63.46833         0.15317
C         65.02391        65.57766         0.08828
C         63.80881        64.89820         0.02288
C         65.13543        67.00709        -0.19014
C         63.79718        67.79563        -0.32515
C         65.05391        69.93075         0.05813
C         63.82387        69.25057        -0.05535
C         65.04942        71.35161         0.19119
C         63.81586        72.05947         0.29114
C         65.02641        74.19070         0.34635
C         63.80555        73.50995         0.34075
C         66.31763        67.79316         0.13485
C         67.51271        69.93606         0.25386
C         66.31001        69.19802         0.11571
C         67.52091        71.35020         0.29697
C         66.28073        72.06789         0.27298
C         67.50656        74.18240         0.42225
C         66.27003        73.49367         0.35018
C         68.73305        72.08636         0.38535
C         68.71299        73.47850         0.43924
O         49.01915        59.76237        -1.99809
O         44.49756        36.22748         3.81158
O         30.81055        67.46937        -1.37952
O         56.60429        57.01373         2.55734
O         44.64421        52.42466        -2.63573
O         44.18925        58.74025        -3.25430
O         37.42187        65.33918         1.84853
O         33.34491        63.15310         2.10019
O         58.20743        67.63239        -1.49529
O         48.36925        51.17515         0.89381
O         40.39467        60.95582        -2.61151
O         40.91692        45.86359        -2.57136
O         43.46079        67.47559         0.92144
O         36.25278        62.81889         1.92718
O         51.13988        60.08277         1.20626
O         55.67668        69.30710         1.78968
O         64.53214        67.39539        -1.49679
O         33.67452        67.27806        -1.33661
O         59.62571        69.23363         1.62581
O         38.32838        47.67831         0.76419
O         24.63203        71.82589        -0.48399
O         37.03443        50.46564         0.80878
O         54.99844        53.67340         2.65207
O         43.21414        61.24933        -3.03469
O         43.13132        41.13604        -1.46133
O         39.15265        63.49084        -1.94131
O         46.57824        68.69077        -2.06076
O         54.01362        50.06203         2.73997
O         50.62042        48.55707        -2.07340
O         47.41304        66.28894         0.74140
O         46.62256        64.51060        -2.47593
O         40.58701        43.22744        -2.18325
O         46.78603        42.30391        -1.79076
O         34.53515        57.01544        -1.80298
O         44.09067        55.48379        -2.75979
O         47.37098        57.80485         0.76646
O         48.58022        54.52077        -2.13336
O         34.81201        58.42953         1.46274
O         28.13651        71.78777        -1.05314
O         35.85014        52.26270        -2.28624
O         27.93632        58.51909         0.01141
H         28.07966        58.69652        -0.94058
O         46.53958        38.94272        -0.86530
H         45.76193        38.45292        -1.20378
O         45.74335        61.01507         0.52475
H         46.26251        60.49329         1.17389
O         47.91046        45.35828        -2.46002
H         47.82335        46.24888        -2.88011
O         53.66428        73.60308         2.46124
H         54.44396        73.15981         2.86123
O         51.62587        56.24655        -1.82645
H         50.85184        55.81240        -2.24909
O         38.55153        46.72941        -2.66585
H         39.39176        46.71281        -3.18498
O         54.10166        58.99146        -1.64674
H         53.87284        58.06268        -1.87168
O         53.95233        68.09554        -1.87859
H         53.95906        67.21771        -2.31769
O         57.92221        60.91505        -1.48523
H         57.15730        61.15807        -2.04830
O         63.15445        60.74675        -1.01328
H         62.55501        60.99799        -1.74586
O         43.82061        69.26429        -2.28709
H         44.72680        69.05532        -2.62392
O         31.60091        68.88507         1.83273
H         31.62227        69.74990         2.29475
O         48.21481        50.10672        -2.58411
H         47.68052        49.50567        -3.15000
O         49.72030        45.86216         1.66719
H         50.10752        46.71891         1.95589
O         51.82992        49.34208        -2.17712
H         51.51652        50.15197        -2.64979
O         47.45620        40.28215         2.42476
H         48.23235        40.81406         2.70194
O         26.91528        71.69782         2.41206
H         26.27088        72.21867         2.93640
O         61.09331        69.48352        -1.67347
H         61.81539        69.04461        -2.17145
O         40.61013        48.72336         0.91374
H         39.78896        48.52960         1.43103
O         51.71987        49.36158         2.29067
H         52.48318        49.43060         2.94716
O         52.99651        52.28336         2.90715
H         53.37352        51.50465         3.41137
O         58.44812        61.18875         2.12248
H         59.09270        60.76232         2.72519
O         58.98683        56.21612         2.98717
H         58.09009        56.23543         3.40526
O         39.98001        49.48775        -2.60579
H         39.97061        50.32902        -3.10957
O         46.48171        46.49298         0.76643
H         47.40839        46.58234         1.08298
O         46.54294        47.53529        -2.81787
H         45.71284        47.09758        -3.10842
O         61.47834        72.04408         2.23260
H         60.66152        72.43921         2.60547
O         43.87855        71.96295         1.71867
H         44.71973        72.33083         2.06548
O         31.66759        72.22328        -1.67515
H         32.45812        72.76541        -1.88107
O         44.94276        40.78566         1.91601
H         45.76194        40.61547         2.44462
O         37.75428        75.59542         0.52186
H         37.78489        75.59248        -0.45641
O         44.86483        54.03131         0.57566
H         45.03947        54.89529         1.00583
O         48.60289        72.08215         2.11583
H         49.48754        72.20190         2.54710
O         45.88554        61.38794        -3.07761
H         45.16694        61.37796        -3.74915
O         51.30319        72.15193         2.37051
H         52.07621        72.71324         2.65119
O         54.36935        46.18052        -1.30803
H         53.69768        46.58398        -1.89678
O         36.61354        71.84757         2.39020
H         35.77453        72.18733         2.76720
O         38.19912        58.28168         1.36486
H         37.35780        58.15023         1.85470
O         41.19726        73.73386        -1.81902
H         40.42368        73.18161        -2.06198
H         23.11042        75.11373         2.11108
H         25.46764        75.23880         1.18222
H         27.95868        75.23020         0.92651
H         30.41452        75.18449         0.86566
H         32.84240        75.22938         0.64619
H         35.33180        75.26919         0.48016
H         37.90679        74.29402         2.10335
H         40.20857        75.30261         0.45911
H         42.75422        75.35708        -0.22527
H         45.22396        75.33591        -0.03380
H         47.69975        75.29372        -0.11854
H         50.17440        75.22937        -0.13911
H         52.64516        75.23393         0.09277
H         55.16310        75.30245         0.70313
H         57.61064        75.28538         0.46219
H         60.05679        75.29871         0.24528
H         62.57537        75.30833         0.18666
H         65.03403        75.29082         0.37083
H         67.50960        75.28067         0.47265
H         22.03440        69.28614         1.36226
H         20.84178        71.43196         1.92176
H         20.99431        73.84861         2.38907
H         24.47956        65.00534         0.81652
H         23.23722        67.15366         1.00183
H         26.94358        60.71757         0.62604
H         25.69698        62.88085         0.66887
H         29.38097        56.44360         0.22699
H         28.83430        58.84040         1.82723
H         31.82304        52.19127        -0.38739
H         30.62598        54.30900        -0.20935
H         34.29056        47.90465        -1.00688
H         33.02775        50.03508        -0.83004
H         36.83759        43.82867         0.08275
H         35.48997        45.76698        -0.73191
H         39.22326        39.98297         1.65718
H         38.08736        42.06943         0.98947
H         41.54934        35.65456         2.54744
H         40.42798        37.80256         2.30530
H         44.97755        32.26646         3.27798
H         42.83018        33.45026         2.97565
H         47.13955        33.38193         2.86079
H         48.42055        35.32102         1.96989
H         49.67556        37.25612         1.19534
H         51.01013        39.35678         0.77331
H         52.26962        41.53364         0.68506
H         53.50575        43.66564         0.52722
H         54.70973        45.87627         0.70087
H         55.93269        48.17743         0.18656
H         56.98542        50.27935         0.30800
H         58.22296        52.29542         0.62780
H         59.55045        54.35830         1.01968
H         60.92746        56.57856         1.04914
H         62.14968        58.66143         0.69799
H         63.30439        60.94189         1.02669
H         64.69750        62.91305         0.22817
H         65.93663        65.02569         0.35872
H         67.24372        67.26464         0.40693
H         68.46894        69.39360         0.30026
H         69.69029        71.54617         0.40848
H         69.66071        74.03180         0.50141
