         272
 CSIRO Nanostructure Databank - Neutral Graphene Oxide Data Set
C        -11.15544         0.59456        -0.97208
C         -9.95338         1.38405        -0.68604
C         -8.95690         0.75991         0.29896
C         -7.53846         1.36957         0.11170
C         -6.37016         0.69372         0.78676
C         -5.05412         1.43172         0.94079
C         -3.75358         0.69478         1.04593
C         -2.51652         1.48817         0.64999
C         -1.21917         0.74315         0.93168
C          0.00377         1.52234         0.54787
C          1.19913         0.80637         0.01787
C          2.55540         1.41455         0.19685
C          3.75496         0.67830        -0.40115
C          5.06229         1.42702        -0.40904
C          6.25011         0.82406        -1.10569
C          7.55755         1.55353        -1.01050
C          8.68637         0.76965        -0.43269
C          9.95802         1.48314        -0.03514
C         11.16727         0.62469         0.10050
C         -9.83521         2.69313        -1.02077
C         -8.77253         3.58490        -0.39610
C         -7.45507         2.81449        -0.26134
C         -6.18161         3.57202         0.02798
C         -4.95142         2.87372         0.53632
C         -3.87198         3.66197         1.30889
C         -2.52565         2.89691         1.28082
C         -1.23290         3.65853         1.29002
C          0.08149         2.92218         1.09986
C          1.38397         3.63972         0.98653
C          2.64123         2.86194         0.62069
C          3.83445         3.60593         0.06100
C          5.16414         2.84738         0.23017
C          6.38252         3.71544        -0.15884
C          7.58188         3.09313        -0.91985
C          8.90807         3.74226        -0.31847
C         10.04655         2.93638        -0.24531
C         -8.64735         4.93085        -1.12041
C         -7.56811         5.65521        -1.37830
C         -6.18098         5.00552         0.48719
C         -4.88659         5.75531         0.24600
C         -3.66882         5.10267         0.79884
C         -2.50858         5.90664         1.41856
C         -1.22692         5.15154         1.04928
C          0.06995         5.87243         0.86521
C          1.40468         5.14299         0.91674
C          2.61003         5.84409         0.37109
C          3.77005         5.07979        -0.22800
C          5.02457         5.87130        -0.73385
C          6.32927         5.19494        -0.33742
C          7.62564         5.93969        -0.71133
C          8.77796         5.10634        -0.13424
C         -6.64394         6.46846        -1.89296
C         -5.85787         7.55325        -1.20190
C         -4.95433         7.21364        -0.03412
C         -3.72997         8.02650         0.31996
C         -2.52718         7.40752         1.00453
C         -1.19727         8.21146         1.14915
C          0.10116         7.36694         1.07082
C          1.37832         8.05708         0.72617
C          2.49711         7.32172        -0.01653
C          3.84331         7.93813         0.33719
C          5.02229         7.43061        -0.45508
C          6.35254         7.99198         0.02198
C          7.52711         7.32236        -0.09273
C         -5.39298         8.69775        -2.02746
C         -4.37773         9.49511        -1.65981
C         -3.62428         9.40195        -0.34790
C         -2.19233         9.86039        -0.52293
C         -1.11399         9.39620         0.16488
C          0.15051        10.12889         0.11667
C          1.38494         9.52138         0.44306
C          2.61993        10.17215         0.39831
C          3.86739         9.47464         0.61948
C          5.18864        10.13145         0.51881
C          6.32755         9.41362         0.36991
C        -11.15833        -0.75398        -0.95263
C         -9.83605        -1.47587        -0.93845
C         -8.87051        -0.81975         0.10300
C         -7.57938        -1.55380         0.27681
C         -6.33295        -0.80591         0.73045
C         -4.99202        -1.46440         0.54606
C         -3.70983        -0.77803         0.90351
C         -2.52199        -1.45106         0.87131
C         -1.19700        -0.75164         0.95269
C          0.13408        -1.49308         0.63357
C          1.11867        -0.68164        -0.24227
C          2.28322        -1.37009        -0.92561
C          3.55018        -0.55234        -1.34480
C          4.87764        -1.39423        -1.41292
C          6.19470        -0.69019        -1.23861
C          7.42498        -1.47816        -0.87806
C          8.67546        -0.73234        -0.55350
C         10.01071        -1.43930        -0.79744
C         11.16859        -0.69270        -0.16345
C         -9.87943        -2.96197        -0.69650
C         -8.72213        -3.70025        -0.45879
C         -7.42564        -2.91686        -0.40347
C         -6.27260        -3.68493         0.20076
C         -4.98242        -2.92431         0.24745
C         -3.77923        -3.69865         0.65228
C         -2.52684        -2.93217         0.93177
C         -1.29691        -3.63696         0.43728
C         -0.08619        -2.87836         0.03096
C          1.11588        -3.66465        -0.45766
C          2.32433        -2.90658        -0.95078
C          3.62108        -3.67138        -1.09708
C          4.91524        -2.92566        -1.37554
C          6.22301        -3.71063        -1.41455
C          7.59396        -2.92816        -1.42593
C          8.71378        -3.58867        -0.60302
C          9.84328        -2.86319        -0.31842
C         -8.69288        -5.12115        -0.37899
C         -7.50052        -5.90609        -0.23337
C         -6.24749        -5.17188         0.10706
C         -4.94138        -5.86260        -0.15874
C         -3.62943        -5.07493         0.00391
C         -2.50423        -5.87774         0.65535
C         -1.22777        -5.10742         0.73452
C          0.10064        -5.79810         0.71020
C          1.05135        -5.21165        -0.32932
C          2.42553        -5.89214        -0.31797
C          3.67700        -5.10279        -0.64336
C          5.01739        -5.65143        -0.12175
C          6.19163        -5.21383        -1.01859
C          7.48463        -5.74221        -0.41475
C          8.63347        -4.97733        -0.28423
C         -7.47519        -7.29215        -0.22707
C         -6.22717        -8.15536        -0.39288
C         -4.91411        -7.35185        -0.30405
C         -3.61152        -8.09576        -0.07119
C         -2.46972        -7.37570         0.59907
C         -1.16686        -8.08577         0.92873
C          0.12427        -7.28174         0.98164
C          1.42755        -8.07966         0.85901
C          2.55221        -7.29211         0.18061
C          3.91859        -7.90938         0.36530
C          5.04699        -7.16758        -0.37591
C          6.34226        -7.88133        -0.05715
C          7.51405        -7.12149        -0.06790
C         -6.13575        -9.43875         0.40391
C         -4.98510       -10.13348         0.50072
C         -3.64529        -9.57866         0.15046
C         -2.39050       -10.30346         0.67907
C         -1.09441        -9.50981         0.50043
C          0.08546       -10.09910         0.11917
C          1.36117        -9.43034         0.18218
C          2.58173       -10.02636        -0.12755
C          3.85025        -9.37544         0.01691
C          5.09081       -10.01182        -0.10601
C          6.29770        -9.29094         0.00563
O         -0.73770         5.47410        -0.28943
O          1.32889        -3.38176        -1.88299
O          5.93913        -6.04161        -2.22303
O          1.06434         7.72694         2.11053
O         -7.03474        -2.60421        -1.81123
O          4.99116        -7.14532        -1.84050
O          0.29336         1.53587        -0.88862
O         -1.82589         3.13333         2.52359
O         -1.99731        -5.41316         1.92446
O          6.93879         1.26516        -2.30101
O          3.56128        -4.76960        -2.04852
O         -3.82906         5.20372        -0.63111
O          1.09514        -0.94341        -1.65428
O         -3.56792         8.10004         1.77140
O         -2.18769        -7.90067         1.95208
O         -6.43080        -4.49002         1.39985
O         -4.42441         1.18542         2.23293
O          4.69971         8.10792        -1.68948
O         -1.09011         0.04377         2.19493
O          4.72939         0.42075         0.63647
O          7.84658        -1.33866         0.50413
O          0.41995        -6.28009         2.03695
O         -9.39124         1.08372         1.56106
O          1.80879        -8.39056         2.22751
O          0.89972         3.13944         2.27631
O         -1.14488        -3.11294        -0.93168
O         -4.90590        -6.48329        -1.49267
O         -5.09851         3.17030        -0.86184
O          3.42008         4.08782        -1.24677
O          5.48986        -3.44393        -2.61377
O         -8.63246        -1.57476         1.29013
O         -1.23326         8.80351         2.45648
O         -4.81917        -1.98397        -0.84510
O          3.91467         8.40930         1.66618
O          8.10294        -2.88514        -2.71129
O          2.43525         5.66567         1.80289
O         -7.24887         1.75865        -1.25617
O         -3.34125        -3.48257         2.01218
O          6.63169         4.60975         0.96832
O          2.33473        -7.05607        -1.22530
O         -3.35924        -9.02066        -1.17267
O          5.67098        -0.98451        -2.56329
O          2.85921         1.79507         1.57429
O          8.89909         1.16041         0.95530
O         -6.99210         5.44798         1.27882
O         -6.21929         7.87516         0.17274
O          7.59512         3.57464        -2.18524
O         -6.60735        -0.10991         1.96897
O          7.82843         6.14411        -2.10754
H          7.71805         5.24970        -2.53746
O          4.32875        -7.71781         1.80291
H          1.56702        -7.61313         2.78334
O          3.29279        -0.04246        -2.64613
H          4.10886        -0.15420        -3.19081
O         -2.54782       -10.60650         2.06758
H         -2.49442        -9.75731         2.56438
O         -9.23895         3.85269         0.94655
H         -9.41320         2.97410         1.38338
O         -2.61099         5.87018         2.84372
H         -3.23226         6.58129         3.12063
O          0.80862        -1.73625         1.88580
H          0.46296        -1.09065         2.54859
O         -4.18902        10.38269         0.55591
H         -4.09854        10.01563         1.46629
O          2.21705         7.45758        -1.40826
H          3.09195         7.68336        -1.86282
O         -6.48249        -3.80696        -2.40854
H         -5.55318        -3.52625        -2.60754
O          0.35474        -5.64911        -1.51822
H          0.77557        -5.19394        -2.28629
O         -9.26637        -1.19526        -2.24283
H         -8.49200        -1.78698        -2.40675
O          5.02365         5.72974        -2.15529
H          5.00381         6.65932        -2.52432
O         10.27354        -1.44085        -2.21610
H          9.54131        -1.97693        -2.65377
O          0.15901        11.41692        -0.23604
H         -0.74692        11.75898        -0.37878
O         -2.60571         1.65873        -0.77704
H         -1.71525         1.79169        -1.17275
O         -4.33749         3.75142         2.65529
H         -3.55152         3.74851         3.25046
O         -3.17618        -4.74508        -1.32640
H         -3.42536        -5.48300        -1.93177
O          5.19342        -5.24159         1.23267
H          5.18990        -6.03231         1.82083
O          5.35597         2.65500         1.63433
H          4.76906         1.92087         1.93594
O          4.41207        -8.99883         2.47310
H          3.45086        -9.17655         2.67367
O         -6.34339        -8.60355        -1.77191
H         -6.03076        -7.86557        -2.34308
H         12.10024        -1.26241        -0.02067
H         12.08263         1.10315         0.48260
H         11.03076         3.36914        -0.48947
H          9.52183         5.62086         0.50074
H          8.46638         7.84072         0.16355
H          7.29678         9.93393         0.41749
H          5.23321        11.22115         0.66496
H          2.66065        11.21824         0.05700
H         -0.34932         8.66403         2.87534
H         -2.06705        10.74196        -1.17703
H         -4.08999        10.33047        -2.31702
H         -5.88677         8.86609        -2.99665
H         -6.32764         6.27963        -2.93727
H         -9.62325         5.40525        -1.34244
H        -10.61474         3.17073        -1.63630
H        -12.09692         1.14460        -1.12945
H        -12.08648        -1.32368        -1.10678
H        -10.85812        -3.46688        -0.64939
H         -9.64391        -5.65952        -0.51869
H         -8.42465        -7.82510        -0.40009
H         -7.07248        -9.89097         0.76268
H         -4.98380       -11.10567         1.01704
H         -2.30264       -11.27878         0.13710
H          0.07259       -11.15075        -0.20872
H          2.58424       -11.06370        -0.49875
H          5.13190       -11.10135        -0.25043
H          7.24650        -9.84633         0.04626
H          8.47426        -7.58500         0.20651
H          9.55740        -5.48110         0.04500
H         10.62577        -3.31505         0.31447
