         276
 CSIRO Nanostructure Databank - Neutral Graphene Oxide Data Set
C        -10.67856         0.38494        -1.41687
C         -9.72151         1.23810        -0.65436
C         -8.58795         0.68022         0.20425
C         -7.25911         1.35523         0.03842
C         -6.08197         0.62963         0.57270
C         -5.05150         1.45140         1.32025
C         -3.71904         0.70727         1.31594
C         -2.46671         1.48318         1.37968
C         -1.15204         0.76435         1.29822
C          0.11672         1.51093         1.00058
C          1.44136         0.73431         0.79964
C          2.32574         1.37376        -0.25377
C          3.12925         0.58654        -0.99871
C          5.04674         1.71471        -1.32289
C          6.06175         0.80873        -0.70317
C          7.29995         1.53082        -0.23263
C          8.52944         0.82905         0.33560
C          9.85002         1.47300        -0.02909
C         11.02806         0.64341         0.17958
C         -9.51374         2.62022        -1.13392
C         -8.45641         3.43713        -0.69701
C         -7.12152         2.84957        -0.27702
C         -6.34847         3.64500         0.81354
C         -5.00017         2.95715         1.04329
C         -3.85382         3.65992         1.23454
C         -2.54852         2.94379         1.08050
C         -1.29365         3.68324         0.74086
C         -0.00858         2.91840         0.48014
C          1.20170         3.64612         0.00189
C          2.50059         2.87033        -0.07617
C          3.74448         3.65845        -0.39486
C          4.97715         3.01230        -0.89933
C          6.26147         3.74241        -0.89887
C          7.53052         2.91067        -0.86962
C          8.71663         3.66250        -0.28656
C          9.91094         2.83677        -0.11446
C         -8.43587         4.81542        -0.88909
C         -7.30077         5.64757        -0.47877
C         -6.16084         5.07913         0.32185
C         -5.01220         5.77684         0.53331
C         -3.83080         5.17963         1.29941
C         -2.46870         5.83149         0.96263
C         -1.27869         5.16246         0.90799
C          0.06395         5.83775         0.93471
C          1.26992         5.12409         0.34756
C          2.40499         5.91520        -0.32493
C          3.73926         5.16671        -0.25808
C          5.01195         5.93522        -0.41551
C          6.28074         5.21872        -0.80334
C          7.60744         5.94620        -0.58417
C          8.71366         5.01246        -0.11985
C         -6.97073         6.83874        -1.35444
C         -5.56016         7.40936        -1.25853
C         -5.02858         7.26459         0.20152
C         -3.68880         8.01175         0.36799
C         -2.47737         7.32828         0.96779
C         -1.19296         8.10370         1.09662
C          0.12811         7.34517         1.33379
C          1.40580         8.04022         0.80986
C          2.59447         7.32233         0.23363
C          3.67702         8.17278        -0.51386
C          5.07784         7.43567        -0.70550
C          6.26456         7.95959         0.10603
C          7.39327         7.20369         0.23425
C         -5.49327         8.83035        -1.77938
C         -4.46943         9.64256        -1.48347
C         -3.42814         9.26185        -0.49439
C         -2.05703         9.69568        -0.61837
C         -1.17456         9.58755         0.59937
C          0.19860        10.16209         0.37493
C          1.36439         9.50826         0.57326
C          2.65932        10.17594         0.56113
C          3.79902         9.51176         0.21239
C          5.08857        10.07025         0.54988
C          6.21976         9.31871         0.60135
C        -10.78120        -0.96808        -1.51228
C        -10.09292        -1.91357        -0.63609
C         -8.54393        -0.76303         0.53861
C         -7.43183        -1.53209         0.71184
C         -6.14769        -0.82995         0.94655
C         -4.83261        -1.53311         0.85160
C         -3.65335        -0.60498         0.51271
C         -2.32316        -1.33113         0.68716
C         -1.20038        -0.71479         1.13139
C          0.12660        -1.42799         1.41339
C          1.14026        -0.74242         0.49466
C          2.10379        -1.55248        -0.30117
C          3.26753        -0.90900        -1.02805
C          4.65987        -1.47929        -0.67503
C          5.99057        -0.71414        -0.91966
C          7.14507        -1.41493        -0.17205
C          8.42491        -0.70161         0.17881
C          9.70910        -1.41361        -0.24734
C         10.96107        -0.70805         0.20291
C         -9.60523        -3.16125        -0.83241
C         -8.70050        -3.80503         0.24020
C         -7.38969        -2.98472         0.30632
C         -6.04917        -3.66806         0.19539
C         -4.76908        -2.99028         0.55209
C         -3.55199        -3.60128         0.44180
C         -2.39180        -2.69885         0.05290
C         -0.98747        -3.59322         1.88305
C          0.02037        -2.94017         1.23898
C          1.06406        -3.75126         0.57267
C          2.16901        -3.04083        -0.13465
C          3.54665        -3.61689        -0.05315
C          4.71427        -2.84390        -0.58853
C          5.98573        -3.61279        -0.91995
C          7.19140        -2.92608        -0.29858
C          8.50713        -3.68586        -0.30445
C          9.72989        -2.91248        -0.18894
C         -8.45172        -5.25905        -0.09690
C         -7.25957        -5.87608        -0.22076
C         -5.97181        -5.13702        -0.12637
C         -4.65652        -5.86803        -0.02966
C         -3.35254        -5.11115         0.31607
C         -2.50868        -5.74102         1.46322
C         -1.18723        -5.07573         1.85064
C          0.12141        -5.85113         1.71405
C          1.27555        -5.14896         1.06322
C          2.41091        -5.82539         0.72021
C          3.65337        -5.06875         0.31754
C          4.89593        -5.76585        -0.11080
C          5.98119        -5.08684        -0.57208
C          7.22918        -5.81716        -0.87672
C          8.52281        -5.03681        -1.01491
C         -7.20984        -7.31564        -0.71200
C         -5.94908        -8.09448        -0.30319
C         -4.65243        -7.39228         0.00022
C         -3.60740        -8.09521         0.83087
C         -2.52473        -7.24708         1.47067
C         -1.23504        -8.01301         1.47248
C          0.09403        -7.34547         1.56905
C          1.27122        -8.17275         1.06770
C          2.59824        -7.32277         0.96341
C          3.50944        -7.82871        -0.19091
C          4.95186        -7.29081        -0.09407
C          5.79732        -7.74761        -1.29878
C          7.17764        -7.14381        -1.15108
C         -6.16371        -9.44287         0.27286
C         -5.25941       -10.05542         1.05449
C         -3.94479        -9.48097         1.42942
C         -2.90286        -9.37749         0.32350
C         -1.44456        -9.21643         0.61792
C         -0.42778        -9.72023        -0.11702
C          0.87074        -8.93825        -0.27153
C          2.04320        -9.78443        -0.69090
C          3.45007        -9.35875        -0.33666
C          4.54824        -9.90380        -1.23127
C          5.67404        -9.23508        -1.52485
O         -0.31519         1.33291         2.37636
O         -6.67217        -2.99008        -0.96924
O          2.54920         7.57318         1.63662
O         -5.13266        -5.37243        -1.31403
O         -1.72096        -2.97768        -0.92066
O          1.17286        -3.74557        -0.91873
O          6.19325         1.31959         0.68054
O          3.44344         3.13374         0.98329
O         -2.08323         7.94219         2.24484
O          4.53156         5.59092         0.90747
O         -5.43882        -1.24126         2.15869
O          3.90649        -4.00938         1.32431
O         -9.82130        -1.33687         0.63190
O         -2.02517        -7.86872         2.69278
O         -3.92058         9.32198         0.91795
O          1.08679         5.18749         1.78052
O          7.50633        -1.14577         1.21294
O         -2.20829         3.22963        -0.32917
O          0.86124        -1.04838        -0.89747
O          3.13160         8.39723        -1.79103
O          0.43562        -6.71882         2.84428
O          0.27636         3.10348        -0.96314
O          6.22557         4.60908        -2.12946
O         -2.26815        -5.32988         2.83528
O         -3.72233        -0.22233        -0.82373
O         -4.87302        -8.00819        -1.30270
O         -6.33315         0.65469        -0.86540
O          7.63052        -3.60462         0.89323
O         -9.69948         1.34394         0.84332
O          3.94447         1.16638        -1.98060
O         -3.08660         0.92513         2.60898
O         -7.78416         7.02397        -0.20508
O          5.63007        -7.78173         1.06372
H          5.03873        -7.64643         1.84225
O          0.46758        -7.93028        -1.22495
H          1.27665        -7.52106        -1.62257
O         -7.13852         3.65573         2.00748
H         -6.60041         4.03242         2.73480
O          8.05415         6.43350        -1.88357
H          7.27686         6.89857        -2.28228
O         -2.47778        -5.39994        -0.79049
H         -2.93023        -5.11733        -1.61620
O          1.43309        -9.16050         2.08495
H          2.33038        -9.56761         1.97689
O         -3.59861        -9.89040         2.71549
H         -2.81843        -9.36707         3.02273
O          5.44232         7.58736        -2.08992
H          4.63808         8.01419        -2.51078
O         -5.57482         1.40269         2.67620
H         -4.79625         1.35397         3.28088
O          2.94668        -7.23574        -1.38110
H          3.61010        -7.26559        -2.11578
O         -6.31793         3.02746        -1.46799
H         -5.89222         2.15700        -1.67884
O         -5.93068         7.86179         1.13668
H         -5.67023         8.80515         1.25088
O         -8.38629        -8.00976        -0.29729
H         -8.48016        -7.92630         0.67369
O          3.12762        -1.29823        -2.42787
H          2.17243        -1.21666        -2.65134
O          0.25598         7.36059         2.76480
H          1.11903         6.93553         2.97612
O          8.71953        -4.77205        -2.41764
H          7.88111        -4.35986        -2.74671
O          6.28350        -0.88530        -2.33960
H          5.53040        -0.49151        -2.83727
O          2.18332         0.79013         2.02232
H          1.55464         0.59033         2.75636
O          9.65663        -1.22926        -1.72639
H         10.54694        -1.42329        -2.09153
O          8.50028         1.07994         1.76490
H          7.63595         0.73808         2.09333
O          5.26819        -7.14664        -2.53065
H          5.92328        -7.28839        -3.24595
O          7.87684         2.59655        -2.24394
H          7.69581         3.41533        -2.76438
O          3.73956        -9.95290         0.97783
H          3.98863       -10.89154         0.84295
O         -1.81045        -2.91453         2.73176
H         -2.38764        -3.59115         3.17068
O          2.00152         6.05705        -1.69665
H          2.39321         6.92217        -2.04102
O          3.26647        -7.46296         2.23095
H          2.58919        -7.30011         2.92837
O         -4.03727         5.50015         2.70575
H         -3.82253         6.44753         2.84961
O         -4.66691         6.61079        -2.06879
H         -4.97056         6.62538        -3.00000
O         -9.33654        -3.79128         1.52656
H         -9.70741        -2.88819         1.66763
O          6.14469        -3.57814        -2.36989
H          6.14845        -2.61994        -2.64151
O         -1.74227        10.42091         1.63721
H         -2.21422         9.82552         2.26846
O          0.49503        -1.16624         2.78128
H         -0.24544        -1.47401         3.34842
H         11.85994        -1.30962         0.40446
H         11.98784         1.14778         0.37281
H         10.89303         3.33677        -0.13230
H          9.63695         5.49843         0.23719
H          8.26422         7.62920         0.75914
H          7.15000         9.75286         0.99818
H          5.10534        11.10654         0.92238
H          2.71723        11.19937         0.96412
H          0.21858        11.24322         0.17438
H         -1.69642        10.12905        -1.56222
H         -4.40235        10.64541        -1.93192
H         -6.26772         9.15958        -2.49039
H         -7.49264         6.95163        -2.33530
H         -9.32606         5.33747        -1.27209
H        -10.32570         3.08311        -1.71981
H        -11.26728         0.96441        -2.14863
H        -11.44426        -1.37709        -2.29080
H         -9.74316        -3.67485        -1.79399
H         -9.35905        -5.86862        -0.23956
H         -7.23361        -7.28682        -1.83216
H         -7.13440        -9.92133         0.07416
H         -5.50126       -11.02915         1.50605
H         -3.17712        -9.76427        -0.67204
H         -0.63317       -10.49294        -0.87419
H          1.87955       -10.87829        -0.65931
H          4.46195       -10.96811        -1.50817
H          6.46829        -9.73651        -2.10269
H          8.08194        -7.71397        -1.41254
H          9.39069        -5.65064        -0.66581
H         10.66157        -3.39082        -0.53850
