         349
 CSIRO Nanostructure Databank - Neutral Graphene Oxide Data Set
C          1.25718         3.35558         0.23776
C          0.03700         4.02283         0.31265
C          1.16755         6.19071         0.21198
C         -0.01220         5.41735         0.30129
C          1.13612         7.64013         0.23037
C         -0.07350         8.37674         0.31448
C          1.11142        10.51431         0.28618
C         -0.09132         9.76009         0.31737
C          1.10787        11.97948         0.15191
C         -0.11240        12.74117         0.27480
C          1.02790        14.87519        -0.13217
C         -0.13980        14.11146         0.19110
C          1.08056        16.27895        -0.21048
C         -0.12314        17.10479        -0.19345
C          1.25106        19.02162        -0.94302
C         -0.07693        18.40935        -0.53728
C          1.25268        20.53005        -1.02191
C          0.17307        21.13791        -1.66254
C          1.27549        23.27713        -1.42881
C          0.19995        22.50456        -1.90406
C          1.17687        25.52775        -0.66965
C          0.03885        26.24284        -0.38899
C          1.30360        27.97994         0.73511
C          0.09264        27.41602         0.43639
C          1.41034        29.30634         1.31198
C          3.70929         3.39943         0.06326
C          2.46497         4.08275         0.13826
C          3.64078         6.25949        -0.00058
C          2.42432         5.51894         0.11851
C          3.61346         7.66872         0.01880
C          2.35906         8.36682         0.17708
C          3.59487        10.51187         0.34074
C          2.32233         9.78917         0.26334
C          3.57911        12.00049         0.01083
C          2.27612        12.66094        -0.18538
C          3.56374        14.89160        -0.64002
C          2.22892        14.10580        -0.49360
C          3.55038        16.30011        -0.25059
C          2.35061        16.96892        -0.20095
C          3.64649        19.18572        -0.17532
C          2.31643        18.47281         0.00186
C          3.62731        20.60044        -0.36167
C          2.41023        21.29504        -0.67500
C          3.53474        23.49918        -0.09501
C          2.40352        22.72916        -0.80189
C          3.59858        25.04624        -0.13285
C          2.48323        25.86557        -0.13291
C          3.79335        27.70482         0.96338
C          2.56747        27.35687         0.17123
C          3.86041        29.11124         1.56741
C          2.59980        29.88710         1.60498
C          6.15202         3.37625        -0.13819
C          4.92568         4.08293        -0.06114
C          6.09162         6.22572        -0.29275
C          4.91084         5.54483        -0.11386
C          6.12043         7.71441        -0.52439
C          4.85146         8.41946        -0.07878
C          6.10058        10.55776         0.24252
C          4.84847         9.77399         0.12666
C          6.12162        11.97583        -0.13212
C          4.85306        12.62670        -0.46424
C          6.12589        14.83869        -0.43599
C          4.85719        14.13026        -0.66659
C          6.06407        16.32881        -0.45456
C          4.83193        16.97755         0.18879
C          6.08869        19.21480         0.34577
C          4.82764        18.47761        -0.02036
C          6.13801        20.65744        -0.09183
C          4.91276        21.33955        -0.65871
C          6.09361        23.50235        -0.20273
C          4.88205        22.82166        -0.32894
C          6.10796        24.93872        -0.06103
C          4.91662        25.67161         0.09313
C          6.26687        27.68184         0.78294
C          5.00924        27.03366         0.52905
C          6.31999        29.09520         1.21094
C          5.14921        29.77429         1.54101
C          8.62667         3.37874        -0.27392
C          7.39066         4.03564        -0.28388
C          8.66449         6.26054        -0.32764
C          7.36141         5.50113        -0.47431
C          8.60172         7.69939         0.01613
C          7.39318         8.35251        -0.00621
C          8.65428        10.51889        -0.22149
C          7.39248         9.81375         0.23008
C          8.57287        12.00702        -0.04486
C          7.34709        12.68721        -0.20384
C          8.59474        14.87603        -0.46593
C          7.30620        14.14866        -0.34339
C          8.62052        16.34239        -0.33583
C          7.36149        17.08992        -0.40106
C          8.57199        19.15204         0.17611
C          7.37341        18.49275         0.02776
C          8.55964        20.61781         0.55352
C          7.32037        21.34188         0.03636
C          8.60355        23.45297         0.01534
C          7.35940        22.77766        -0.11821
C          8.66112        24.89942        -0.02412
C          7.39959        25.69812        -0.26423
C          8.75570        27.67385         0.75444
C          7.43292        27.03085         0.44953
C          8.75752        29.18337         0.75576
C          7.54830        29.81139         1.10671
C         11.09166         3.39115        -0.09548
C          9.87481         4.06987        -0.11415
C         11.02266         6.22429         0.38288
C          9.88273         5.51554         0.03494
C         11.04388         7.67672         0.34480
C          9.85647         8.38126         0.27238
C         11.13359        10.53992         0.10065
C          9.84381         9.87402         0.51966
C         11.11548        11.97890         0.00400
C          9.83411        12.72447         0.33453
C         11.09716        14.89904         0.09978
C          9.87437        14.13345        -0.21855
C         11.04851        16.28100         0.15029
C          9.80930        17.01198        -0.04120
C         11.05904        19.15251         0.18742
C          9.81718        18.44108         0.11696
C         11.03650        20.58234         0.08435
C          9.84264        21.30891         0.15485
C         11.12170        23.42463         0.15909
C          9.82474        22.71987         0.06813
C         11.14623        24.92444         0.18756
C          9.84864        25.58445         0.01101
C         11.10096        27.81141        -0.31587
C          9.84250        27.06218        -0.08977
C         11.17147        29.24539         0.10217
C          9.96633        29.86840         0.58276
C         13.60460         3.42470         0.27127
C         12.28338         4.01386         0.47294
C         13.48689         6.31658         1.20543
C         12.22837         5.51526         0.83365
C         13.52222         7.73262         0.64920
C         12.33259         8.37902         0.38459
C         13.56986        10.45580        -0.29337
C         12.30064         9.79992         0.04092
C         13.54804        12.01133        -0.39014
C         12.28553        12.70924        -0.12865
C         13.54298        14.85472         0.03534
C         12.34122        14.16140         0.07175
C         13.59218        16.26337         0.40007
C         12.26680        17.02769         0.47857
C         13.56257        19.16353         0.18902
C         12.29764        18.47904         0.27116
C         13.58125        20.53058        -0.05402
C         12.31576        21.23578        -0.24215
C         13.66332        23.44595        -0.22124
C         12.35871        22.72993        -0.28761
C         13.58073        24.89785        -0.28588
C         12.40544        25.61589        -0.18220
C         13.53332        27.77821        -0.54882
C         12.38075        27.05997        -0.40611
C         13.47910        29.25719        -0.85987
C         12.35359        29.91901        -0.08731
C         16.02090         3.47267         0.19762
C         14.79009         4.11430         0.49060
C         16.09957         6.30204         0.71912
C         14.81000         5.53044         0.96641
C         16.09533         7.77225         0.58547
C         14.80424         8.53574         0.91811
C         16.02052        10.62361         0.17717
C         14.81197         9.83631         0.15084
C         16.06505        12.00300        -0.44256
C         14.81353        12.74363         0.02246
C         16.07629        14.89714        -0.00804
C         14.81030        14.19562        -0.45350
C         16.07035        16.29570         0.16956
C         14.84105        17.02925         0.20332
C         16.07570        19.14595         0.29443
C         14.82839        18.42610         0.21501
C         16.03266        20.64432         0.38952
C         14.87279        21.23805        -0.41087
C         16.22006        23.38820        -0.51852
C         14.84392        22.75273        -0.31269
C         16.12449        24.89413        -0.73864
C         14.81928        25.60989        -0.65564
C         16.10598        27.82230        -0.55615
C         14.82557        27.08056        -0.41769
C         16.03272        29.29388        -0.77569
C         14.81865        29.94520        -0.76826
C         18.44678         3.45555        -0.32438
C         17.25259         4.16560         0.11253
C         18.55756         6.28436         0.15679
C         17.28893         5.55728         0.27019
C         18.48774         7.72903        -0.11092
C         17.28885         8.41519         0.19407
C         18.54141        10.64907        -0.21891
C         17.36748         9.89481         0.21939
C         18.55632        12.04369        -0.10487
C         17.31425        12.76218        -0.04115
C         18.54362        14.82182         0.59796
C         17.28207        14.14818         0.10686
C         18.52213        16.32797         0.45583
C         17.30532        17.01681         0.36977
C         18.42526        19.12349         1.14763
C         17.26242        18.45505         0.46822
C         18.49149        20.64739         1.05311
C         17.24037        21.44520         0.81315
C         18.57579        23.71891         0.30851
C         17.23082        23.02474         0.61961
C         18.64218        24.91065        -0.59975
C         17.38179        25.69051        -0.74119
C         18.55505        27.85646        -1.15743
C         17.35110        27.05753        -0.84146
C         18.50363        29.33156        -1.01048
C         17.27169        29.99434        -0.87992
C         19.63020         4.07828        -0.53806
C         20.93017         6.26723        -0.82014
C         19.80878         5.50662        -0.22264
C         20.87745         7.60244        -0.97543
C         19.64553         8.39292        -0.74003
C         20.93854        10.71452        -0.90544
C         19.69211         9.93532        -0.79282
C         20.97910        12.03983        -0.60480
C         19.80310        12.79180        -0.20901
C         20.99252        14.96528         0.07529
C         19.80836        14.15849         0.07757
C         20.98074        16.30227         0.38165
C         19.75920        17.04534         0.59777
C         20.92513        19.11047         1.31674
C         19.74680        18.41456         0.92099
C         20.85024        20.40928         1.75395
C         19.63746        21.16946         1.60210
C         20.94175        24.18972         0.94694
C         19.70658        23.44723         1.02985
C         21.06691        25.27898         0.15478
C         19.95630        25.70825        -0.70465
C         21.08442        28.03113        -0.90642
C         19.91928        27.16028        -1.11918
C         20.96574        29.39944        -0.96981
C         19.71234        30.05045        -1.04027
O         12.94748        16.56452         1.69171
O         10.11291        27.61444        -1.41072
O         15.34566        25.18847        -1.96720
O          3.70387        11.52471         1.39911
O         19.23117        27.40874        -2.37867
O         19.52926        24.77912        -1.74863
O         11.99773         4.50952         1.85536
O          3.72934        27.88546         2.40240
O         15.70754         5.77566         2.07822
O          2.74915        14.54560        -1.79151
O          8.12609         5.94839        -1.66941
O         16.15961        21.09647         1.78403
O          6.54631        16.91638        -1.68292
O         11.28342        24.13640         1.43216
O         15.57332        27.47216         0.79128
O         19.56740         5.87055         1.17647
O          6.86095        10.25591         1.50605
O         16.77664        10.49061         1.42493
O         19.30145         9.14993        -1.97618
O         12.22718        22.00101        -1.55022
O          9.41186        14.31569        -1.58492
O          4.87647        13.20459        -1.80555
O          1.10614        24.62630        -1.72211
O         19.73045        22.48696         2.04399
O         13.59899        11.19056        -1.57041
O          2.78700        28.02361        -1.11962
H          2.00769        27.83366        -1.68471
O          4.95025        16.73021         1.62940
H          5.48360        17.47029         2.01415
O         13.09781        29.36961        -2.27833
H         12.20550        28.97115        -2.37878
O         14.77668         8.85403         2.34042
H         14.54451         8.01951         2.81694
O         14.82423        12.81161         1.46441
H         15.19265        11.98007         1.83680
O         16.80884        22.83562        -1.71067
H         16.35850        23.24573        -2.48093
O          6.16473         7.89721        -1.98229
H          6.90299         7.32221        -2.30564
O          5.04482        21.27089        -2.13193
H          5.90540        21.67852        -2.36877
O          7.42215        26.02813        -1.70396
H          6.66883        26.63019        -1.88418
O          6.05418        19.26170         1.85698
H          5.29062        19.82995         2.10373
O         16.75686        23.60313         1.84116
H         16.22637        22.91694         2.31030
O          8.50487        20.67981         2.00965
H          7.70192        20.17086         2.28065
O          9.67534        10.05099         1.94068
H          9.58837        11.01862         2.12799
O         13.38759         6.51357         2.64255
H         13.14548         5.64202         3.03242
O          1.59628        18.53311        -2.26616
H          0.95970        18.90544        -2.91060
O         16.09687        11.83054        -1.87006
H         15.66916        12.61636        -2.28708
O         14.77946        14.19521        -1.91212
H         14.84705        15.12157        -2.22536
O          8.86169        10.23785        -1.63342
H          8.26770        10.81168        -2.16168
O          3.26489        23.24700         1.33666
H          3.93596        23.73832         1.85767
O         18.57977        14.59425         2.05363
H         17.78527        15.02097         2.44045
O          9.80267        12.86222         1.80649
H         10.64799        13.27454         2.08984
O         15.10829        20.88326        -1.80553
H         14.33690        21.21932        -2.31400
O          1.89426        18.75239         1.36095
H          2.45904        18.22670         1.96535
O         18.11264        18.89144         2.58211
H         17.32404        19.44725         2.78354
O          9.09766        27.27770         2.12608
H          8.41213        27.64657         2.72271
H          1.28996         2.25684         0.25323
H         -0.89682         3.44833         0.38664
H         -0.99116         5.90998         0.36989
H         -1.03382         7.84515         0.35462
H         -1.06274        10.27177         0.34160
H         -1.04353        12.21711         0.52882
H         -1.08738        14.63407         0.38425
H         -1.08783        16.63639         0.05143
H         -0.99769        19.01141        -0.55024
H         -0.68588        20.53861        -1.99617
H         -0.62967        23.00847        -2.41551
H         -0.91252        25.94778        -0.84969
H         -0.84331        27.90526         0.74207
H          0.47630        29.87166         1.45421
H          3.71113         2.29929         0.09198
H          2.63955        30.92513         1.96689
H          6.13544         2.27896        -0.05557
H          5.17853        30.86823         1.65797
H          8.64111         2.27893        -0.23842
H          7.52842        30.90229         1.25268
H         11.14648         2.34129        -0.41834
H          9.98929        30.95410         0.76729
H         13.65431         2.41458        -0.16288
H         12.43257        30.98636         0.16996
H         15.99996         2.40157        -0.05246
H         14.81377        31.03963        -0.89346
H         18.34537         2.38281        -0.54658
H         17.25997        31.09494        -0.88064
H         20.47949         3.52907        -0.97145
H         21.83278         5.71226        -1.11824
H         21.72888         8.12900        -1.43028
H         21.84900        10.20923        -1.25736
H         21.93740        12.57039        -0.70026
H         21.95736        14.49351        -0.16115
H         21.93775        16.84219         0.39246
H         21.89351        18.59180         1.33005
H         21.73960        20.92415         2.14059
H         21.76250        23.88209         1.60908
H         21.98253        25.88431         0.20504
H         22.07536        27.58616        -0.74175
H         21.87146        30.01761        -0.88984
H         19.67780        31.14886        -1.01110
