         252
 CSIRO Nanostructure Databank - Neutral Graphene Oxide Data Set
C         30.67113        31.91399        -1.04513
C         30.71607        33.17733        -1.02913
C         30.75626        36.38351        -0.48569
C         30.63345        37.60040        -0.22546
C         30.85097        40.61107         1.50387
C         30.56033        41.80875         1.97949
C         32.72657        28.91555        -0.11589
C         31.73429        29.60154        -0.52179
C         32.70360        31.68363         0.35763
C         31.52178        30.96826        -0.50030
C         32.86145        33.17312         0.06338
C         31.70051        33.99051        -0.40223
C         32.79243        35.92719         0.67561
C         31.69310        35.35770        -0.21888
C         32.82762        37.45375         0.78931
C         31.47344        38.20138         0.96254
C         32.70271        40.31026        -0.04537
C         31.63305        39.68975         0.93855
C         32.79826        41.80926         0.11650
C         30.96134        42.84505         1.15442
C         32.72980        44.49411         1.19513
C         31.59575        44.08431         1.48300
C         35.42401        27.36965        -0.28919
C         35.26360        28.79894        -0.18513
C         34.03571        29.52434         0.00602
C         35.29505        31.58984         0.51796
C         34.01535        30.89820         0.25665
C         35.33136        33.10658         0.70563
C         34.05331        33.80751         0.29984
C         35.27008        35.95209         0.09404
C         34.10799        35.27089         0.29771
C         35.22133        37.42168        -0.14462
C         34.05960        38.18739         0.39554
C         35.21745        40.35090         0.04834
C         34.04311        39.64632         0.13628
C         35.24135        41.78686         0.26457
C         33.95880        42.47590         0.42741
C         35.23562        44.61156         0.60584
C         34.07443        43.83396         1.13524
C         35.37759        46.00322         0.57493
C         37.74708        27.27649         0.02132
C         36.43643        26.65345        -0.28365
C         37.78901        28.70414        -0.56144
C         36.48798        29.44240        -0.25675
C         37.75847        31.59127        -0.45128
C         36.56632        30.85809         0.13107
C         37.73128        33.08888        -0.18875
C         36.57932        33.76382         0.10669
C         37.75634        35.93300        -0.52947
C         36.62340        35.27929         0.25168
C         37.73596        37.42060        -0.73703
C         36.43870        38.18385        -0.55841
C         37.75859        40.29922         0.03756
C         36.48265        39.71685        -0.52332
C         37.73852        41.74046         0.29408
C         36.46462        42.46672         0.33737
C         37.70663        44.66123         0.39174
C         36.48101        43.93004         0.44458
C         37.75738        46.08333         0.44215
C         36.46572        46.62927         0.42570
C         40.23194        24.55668        -0.21393
C         39.20139        25.12136         0.21009
C         40.32875        27.28381        -0.01566
C         39.04496        26.56861         0.26620
C         40.29755        28.73615        -0.02705
C         39.05717        29.44068        -0.12650
C         40.27301        31.56022        -0.09156
C         39.05692        30.84822        -0.14108
C         40.23416        33.00683        -0.46100
C         38.98426        33.80905        -0.45488
C         40.28970        35.97410        -0.89593
C         39.03812        35.17584        -0.52935
C         40.21370        37.35980        -0.19297
C         39.03074        38.24294        -0.75021
C         40.15403        40.17838         0.57121
C         38.91921        39.56072         0.03494
C         40.20182        41.70433         0.62840
C         38.93917        42.43063         0.39066
C         40.29424        44.62804         0.55658
C         38.97028        43.90152         0.55371
C         40.34592        46.11551         0.27949
C         39.01385        46.85968         0.38975
C         40.12713        48.72871        -0.75504
C         39.13028        48.11848        -0.34523
C         42.81225        24.55626        -0.56991
C         41.52527        25.11238        -0.35897
C         42.78482        27.33412        -0.41958
C         41.51326        26.56483        -0.27640
C         42.81164        28.75415         0.04740
C         41.52766        29.47034         0.04119
C         42.84866        31.65897         0.08397
C         41.51715        30.87925         0.01192
C         42.45632        33.05713         0.68449
C         41.51204        33.74718        -0.29701
C         42.81579        35.93688        -0.08444
C         41.58005        35.23013        -0.51594
C         42.78802        37.39539         0.11262
C         41.53349        38.17122        -0.28589
C         42.72220        40.21816         0.43108
C         41.46428        39.39533         0.63964
C         42.68495        41.65551         0.26245
C         41.51500        42.37624         0.42232
C         42.79659        44.58352        -0.06334
C         41.57475        43.85963         0.41712
C         42.65734        45.96785        -0.61784
C         41.49304        46.66902        -0.52060
C         42.68307        48.64880        -1.31426
C         41.31207        48.03387        -1.35847
C         43.90075        25.15436        -0.43717
C         45.33586        27.24188         0.01157
C         44.13654        26.59157        -0.50657
C         45.31808        28.68747         0.52298
C         43.98907        29.39794         0.33120
C         45.35974        31.50512         0.67883
C         43.97332        30.84197         0.82912
C         45.51681        32.83265         1.19080
C         43.60558        33.94117         1.08187
C         45.25110        35.85809         0.59976
C         43.87270        35.19519         0.65754
C         45.17596        37.36002         0.87413
C         43.91960        38.06671         0.47495
C         45.18905        40.22003         0.24483
C         43.90729        39.52747         0.48525
C         45.14642        41.69247         0.16320
C         43.95631        42.34161         0.02999
C         45.28014        44.43218        -0.55515
C         43.93460        43.71168        -0.62718
C         45.20756        45.79275        -1.21350
C         43.90499        46.52957        -1.28386
C         43.70638        47.97142        -1.46073
C         47.75950        27.41327         0.02310
C         46.62109        26.79899        -0.06530
C         47.74574        28.79938        -0.32427
C         46.54263        29.46838        -0.00238
C         47.70816        31.72042        -0.14904
C         46.49849        30.88800         0.14191
C         47.74001        33.17328         0.25835
C         46.55997        33.69307         0.97093
C         47.74557        35.92247         1.38078
C         46.44632        35.16364         1.27634
C         47.79357        37.39229         1.00811
C         46.48790        38.09902         0.88327
C         47.78194        40.24678         0.13523
C         46.49975        39.49520         0.33159
C         47.62804        41.62378        -0.17582
C         46.44767        42.42164         0.39060
C         47.80615        44.58103        -0.04793
C         46.42439        43.86023        -0.11177
C         47.56533        45.93179        -0.64037
C         46.55213        46.37863        -1.17917
C         50.31618        28.96695        -0.49306
C         48.97643        29.52945        -0.67744
C         50.30396        31.74288        -0.05069
C         49.02952        31.05824        -0.44321
C         50.26482        33.08458         0.50199
C         49.03211        33.80984         0.62351
C         50.16756        35.56305         1.82534
C         48.98229        35.05874         1.27092
C         50.17678        37.74120         1.51757
C         48.94035        38.17440         0.89423
C         50.30130        39.98689        -0.13661
C         49.00490        39.49795         0.22009
C         50.46013        41.19985        -0.86120
C         48.58105        42.34963        -0.90500
C         50.14406        44.02185        -1.13198
C         48.81545        43.74329        -0.80453
C         51.36216        29.63952        -0.47614
C         52.68271        31.75935         0.25116
C         51.53573        31.01546        -0.12099
C         52.60801        32.93057         0.69236
C         51.48260        33.73898         0.95517
C         52.49689        35.96398         1.80656
C         51.43664        35.00184         1.59229
C         52.41483        37.18879         1.59221
C         51.45116        38.16264         1.19564
C         52.60537        40.33937         0.48128
C         51.62611        39.21553         0.15302
C         52.67176        41.43051        -0.11891
C         51.56763        42.10998        -0.74493
C         51.26199        43.42485        -1.12691
O         31.55238        42.42965        -0.11004
O         39.64559        44.30674         1.81617
O         46.90956        35.60535         2.56443
O         45.69795        37.90005         2.11986
O         44.46361        33.31166         1.98627
O         47.47919        32.79971        -1.13124
O         43.62609        43.42978        -1.95962
O         49.43340        41.58830        -1.73976
O         48.95563        30.44974        -1.78048
O         35.44763        37.75549        -1.55863
O         45.79925        39.57755        -0.97191
O         33.78150        37.86077         1.82084
O         43.51448        27.16573        -1.68657
O         42.64758        35.52558        -1.50305
O         39.94771        46.84532         1.49060
O         36.20099        31.00902         1.53979
O         38.23763        27.14609         1.34425
O         40.01887        40.87767         1.85046
O         37.56390        36.49692        -1.86402
O         42.59139        44.42982         1.35599
O         44.42202        45.80265        -2.41666
O         43.36309        31.97458        -1.24526
O         50.05171        36.77386         2.53976
O         41.17760        33.14838        -1.59135
O         30.85993        37.80425         2.14849
H         31.00406        36.83783         2.27906
O         35.44528        33.36134         2.14092
H         35.93972        32.59657         2.52337
O         46.60871        42.44487         1.83560
H         47.19549        43.20553         2.06135
O         32.46404        35.46040         2.01596
H         33.14714        35.82587         2.62198
O         43.76709        30.71379        -1.86563
H         44.19476        31.03821        -2.69612
O         32.25346        39.98961        -1.37533
H         31.53458        40.61832        -1.60412
O         45.48688        28.65955         1.98373
H         46.31232        28.15920         2.17015
O         37.57037        31.44387        -1.90162
H         38.25657        31.98348        -2.35191
O         39.90171        37.02592         1.16860
H         40.37658        37.64847         1.78174
O         36.97018        35.55733         1.64077
H         36.42210        34.94855         2.19870
O         41.00966        47.65016        -2.67161
H         40.95278        48.44345        -3.24199
O         45.61127        35.75539        -0.81052
H         44.81983        35.92350        -1.36838
O         52.05653        38.58527        -1.04427
H         52.20692        39.26623        -1.73250
O         32.26049        31.60223         1.71805
H         32.26103        30.66146         1.99473
O         39.25025        38.63404        -2.10920
H         39.05489        37.85273        -2.67514
O         36.44280        40.15290        -1.90889
H         35.82917        39.54693        -2.38401
O         41.73362        38.62785        -1.62594
H         41.57527        37.87345        -2.23714
O         34.41245        43.48726         2.49730
H         34.64105        44.30832         2.98181
O         43.61377        30.79399         2.22531
H         44.22764        30.15486         2.65746
O         48.19977        44.65323         1.32760
H         49.07468        45.09163         1.38421
O         40.30940        36.16698        -2.32342
H         40.75676        35.39166        -2.72839
O         41.68127        32.80749         1.87922
H         42.28135        32.35181         2.51613
O         41.55262        38.88203         2.00324
H         41.26770        39.62230         2.59209
O         37.89254        28.56285        -1.99759
H         37.78929        29.46476        -2.38468
