         268
 CSIRO Nanostructure Databank - Neutral Graphene Oxide Data Set
C        -11.28248         0.74613        -0.19410
C        -10.08721         1.60058        -0.40475
C         -8.77424         0.88232        -0.61182
C         -7.47272         1.61806        -0.43296
C         -6.24949         0.86555        -0.02880
C         -5.10948         1.56455         0.66504
C         -3.76991         0.86374         0.54590
C         -2.59742         1.54314         1.18546
C         -1.31243         0.74628         1.35723
C         -0.03782         1.50149         1.58052
C          1.28140         0.73774         1.59162
C          2.57557         1.47708         1.44069
C          3.78454         0.65635         1.14733
C          4.96571         1.35441         0.52512
C          6.30419         0.69201         0.67325
C          7.60814         1.48922         0.76993
C          8.74437         0.68093         0.12446
C          9.87064         1.44212        -0.52278
C         11.07502         0.67615        -0.92310
C        -10.03897         3.01947        -0.00116
C         -8.86919         3.76438        -0.05005
C         -7.50672         3.13855        -0.32956
C         -6.51340         3.79847         0.67995
C         -5.19627         3.03435         0.94157
C         -3.90609         3.81708         1.09823
C         -2.61087         3.04768         1.33379
C         -1.28344         3.80682         1.33309
C          0.00135         3.01014         1.41631
C          1.23185         3.45152         0.61121
C          2.56471         2.95812         1.23389
C          3.93995         3.63811         1.00858
C          4.82800         2.83368         0.05178
C          6.20856         3.51089        -0.18123
C          7.51690         2.82926         0.04935
C          8.80051         3.60248         0.01103
C          9.92073         2.91032        -0.29410
C         -8.85264         5.18233         0.06432
C         -7.64219         5.92314        -0.09871
C         -6.34379         5.13347        -0.06203
C         -5.13788         5.96750         0.28921
C         -3.87476         5.25733         0.71452
C         -2.56843         5.80089         0.22111
C         -1.25130         5.30317         0.86091
C         -0.05820         5.64738        -0.06082
C          1.24926         4.90657         0.12858
C          2.52192         5.69520         0.06254
C          3.81684         5.11738         0.57629
C          5.04463         5.79258         0.08533
C          6.27679         5.04038        -0.44652
C          7.52150         5.81365         0.01093
C          8.82523         5.08762         0.31109
C         -7.59877         7.26168        -0.44182
C         -6.34176         7.86492        -1.04307
C         -5.10081         7.31604        -0.33734
C         -3.79448         7.87584        -0.80226
C         -2.54377         7.11656        -0.48536
C         -1.24009         7.94022        -0.36258
C         -0.03825         7.00120        -0.71908
C          1.29370         7.70836        -1.11377
C          2.46444         7.17851        -0.23487
C          3.73485         7.89912        -0.48735
C          5.04763         7.15147        -0.59509
C          6.18962         7.97805         0.01196
C          7.48335         7.16904         0.02715
C         -6.24242         9.38159        -1.00088
C         -5.06617        10.03479        -1.07877
C         -3.76529         9.32109        -1.21980
C         -2.45265         9.98907        -1.25322
C         -1.26124         9.28728        -1.09503
C         -0.00302         9.92429        -1.21437
C          1.24288         9.26108        -1.02431
C          2.44973         9.92802        -1.06045
C          3.74279         9.18192        -1.31796
C          5.04890         9.93089        -1.08978
C          6.18056         9.35362        -0.64367
C        -11.28537        -0.59260        -0.39243
C        -10.06080        -1.39291        -0.64399
C         -8.76369        -0.62612        -0.55054
C         -7.61789        -1.34286         0.09338
C         -6.32648        -0.58907         0.32251
C         -5.04902        -1.33913         0.51079
C         -3.73109        -0.62586         0.35143
C         -2.46061        -1.43160         0.55638
C         -1.14593        -0.66879         0.78364
C         -0.03164        -1.48956         1.49120
C          1.28694        -0.75488         1.63324
C          2.57858        -1.58313         1.69595
C          3.79368        -0.70029         1.32451
C          5.07242        -1.46476         1.31779
C          6.37850        -0.69835         1.24755
C          7.66332        -1.44512         1.03397
C          8.88197        -0.80062         0.39990
C          9.91227        -1.50165        -0.46355
C         11.00641        -0.65957        -1.05397
C        -10.03886        -2.86960        -0.40115
C         -8.87564        -3.56318        -0.31574
C         -7.61012        -2.83779         0.00605
C         -6.23671        -3.39449        -0.38378
C         -5.12136        -2.85125         0.53187
C         -3.87295        -3.61027         0.81682
C         -2.53148        -2.91547         0.75546
C         -1.37265        -3.74491         1.33379
C         -0.01932        -2.99607         1.41194
C          1.24357        -3.66607         0.91680
C          2.48433        -2.82047         0.78341
C          3.75997        -3.44659         0.25669
C          5.02993        -2.91126         0.90062
C          6.33236        -3.62957         0.67173
C          7.58774        -2.94337         1.20999
C          9.03847        -3.89246        -1.03799
C          9.63777        -2.73313        -1.26501
C         -8.83612        -5.06263        -0.07276
C         -7.52057        -5.72469        -0.46385
C         -6.24075        -4.92552        -0.75010
C         -5.07090        -5.69929        -0.10807
C         -3.88614        -5.09796         0.56811
C         -2.59872        -5.89045         0.72445
C         -1.31557        -5.10110         0.64934
C         -0.01767        -5.78959         0.42451
C          1.24504        -4.96830         0.48835
C          2.36518        -5.55172        -0.33359
C          3.68596        -4.79331        -0.49708
C          4.90478        -5.54005        -1.10178
C          6.28773        -5.01628        -1.15105
C          7.44430        -5.79438        -1.41506
C          8.77430        -5.18368        -1.24335
C         -7.46540        -7.06405        -0.67762
C         -6.20615        -7.74552        -1.09433
C         -4.91892        -7.03439        -0.76884
C         -3.60674        -7.76626        -0.69765
C         -2.53013        -7.31126         0.25167
C         -1.24105        -8.15889         0.33241
C          0.05512        -7.29038         0.74191
C          1.35306        -7.93424         0.21182
C          2.30471        -7.04687        -0.59767
C          3.53845        -7.77921        -1.05534
C          4.79799        -7.02445        -1.41605
C          6.04414        -7.90741        -1.62068
C          7.33886        -7.14833        -1.68059
C         -6.08189        -9.20299        -1.32851
C         -4.88279        -9.81526        -1.48206
C         -3.57234        -9.15632        -1.26770
C         -2.30698        -9.91398        -1.13218
C         -1.16092        -9.29793        -0.67849
C          0.11818        -9.98940        -0.72221
C          1.22988        -9.30818        -0.38419
C          2.53313        -9.66523         0.24874
C          3.69255        -9.26976        -0.68132
C          5.03596        -9.54205        -0.05449
C          6.13397        -8.92911        -0.50236
O         -9.49809         1.39751        -1.75297
O          3.04591         8.02852         0.78454
O         -1.07959         8.33171         0.94244
O         -0.11848        -2.28235         2.70547
O          7.31120        -0.84860         2.35196
O         -0.33088         5.84124        -1.47663
O          2.64029        -4.73404        -1.49803
O         -7.84690        -2.16657         1.28923
O          4.66792         5.91096         1.46199
O          2.43898        -7.50333        -1.97543
O          8.41465        -3.60937         1.79802
O         -2.57227         5.86386        -1.23185
O         -0.82742         0.98838         2.68725
O         -3.57841         0.29646        -0.77725
O         -0.48237         3.72167         2.55998
O         -1.42135        -9.08572         1.38884
O          2.56439         2.44075         2.58186
O          6.88245         2.78462        -1.25384
O         -5.78375        -0.79530         1.65766
O          2.29090        -8.56357         1.22333
O         -5.33728         7.17026         1.09167
O         -6.07277         4.67811        -1.43256
O          5.00433        -2.54034         2.30680
O          3.01225        -2.46057        -0.52837
O          4.60613        -6.06226        -2.46887
O         -6.05002        -5.00924        -2.14785
O         -5.43722        -6.99170        -2.11858
O         -2.28017        -2.37225        -0.57073
O          8.72385         0.94772        -1.31000
O          5.58663         0.60309        -0.58336
O         10.07060        -1.40988         0.99450
O         -5.42296         2.04413         1.99899
O         -3.18628        -7.96275        -2.08269
O          2.05636         4.94628        -1.09455
O         -2.85541        -6.97957         1.63870
O          6.53103        -3.70974        -0.80146
O         -0.79383        -5.26443        -0.71098
O         -9.22984        -1.13814        -1.83318
O          1.31424         0.01952         2.87492
O         -2.88738         2.17923         2.46176
O          1.58407         7.42339        -2.41982
O         -4.99536        -5.72355         1.31739
O         -7.08429         3.62986        -1.65869
O         -3.83571         8.21758        -2.21095
O         -3.94735         4.88565         2.11592
O         -4.82375        -3.29877         1.87908
O          6.22522         5.15716        -1.84547
O         -6.46458         1.18429        -1.41700
O          6.28511        -4.93222         1.20725
H          7.12872        -5.05824         1.71195
O          7.88269         1.77172         2.14786
H          7.89155         0.91629         2.64352
O         -5.93112        -2.67316        -1.60930
H         -5.93280        -3.33579        -2.35283
O         -0.57130        -0.43180        -0.52445
H         -0.91594        -1.11605        -1.14555
O          4.67593         3.59744         2.23489
H          4.11380         3.94006         2.96234
O          3.58151       -10.05608        -1.88095
H          2.96012        -9.58888        -2.48129
O          1.07645         2.64868        -0.58807
H          1.62903         3.05997        -1.29721
O         -7.15290         4.00326         1.93528
H         -6.74012         3.40493         2.59784
O          5.85816         8.21209         1.39963
H          6.62610         8.63416         1.83577
O          5.25979         6.93812        -1.98714
H          6.05242         7.41595        -2.31100
O         -1.03330         6.06883         2.04828
H         -1.73808         5.86166         2.69836
O          3.76098         8.84587        -2.72366
H          2.96425         8.24994        -2.89235
O          9.13938         5.26210         1.70641
H          8.49509         4.75114         2.23951
O          4.15422         2.80467        -1.20679
H          4.79641         2.46793        -1.87278
O          2.68674        -2.07223         3.03190
H          2.35245        -1.36856         3.63483
O          0.09278        -7.31495         2.16992
H         -0.43854        -8.12046         2.42858
O          5.86074        -8.60484        -2.87354
H          5.52573        -7.95259        -3.52565
O         -9.06536        -5.28137         1.33188
H         -8.42770        -4.73829         1.84194
O         -1.77592        -4.10979         2.66451
H         -1.44352        -3.42880         3.29431
O         -6.36717         7.45324        -2.42753
H         -6.29520         6.47107        -2.46420
H         11.86343        -1.21306        -1.46739
H         11.96412         1.22951        -1.25919
H         10.89640         3.41462        -0.36423
H          9.65996         5.56716        -0.26117
H          8.40409         7.72007         0.28591
H          7.10088         9.95749        -0.57989
H          5.09075        10.96770        -1.46102
H          2.47025        11.02536        -0.94805
H          0.02346        10.93066        -1.66818
H         -2.42165        11.07900        -1.41370
H         -5.04549        11.13490        -1.04628
H         -7.17647         9.95792        -0.91628
H         -8.54426         7.81775        -0.54669
H         -9.80684         5.72593         0.13687
H        -10.98665         3.52719         0.23755
H        -12.21939         1.25091         0.08695
H        -12.22050        -1.15015        -0.22822
H        -10.99844        -3.40798        -0.45401
H         -9.67706        -5.56289        -0.61588
H         -8.36372        -7.68685        -0.54656
H         -7.00686        -9.79395        -1.40559
H         -4.86385       -10.90286        -1.65183
H         -2.22703       -10.87673        -1.66216
H          0.15535       -11.06088        -0.97093
H          2.65468       -10.66195         0.72981
H          5.09747       -10.29233         0.74846
H          7.12190        -9.15335        -0.07345
H          8.24989        -7.73688        -1.86336
H          9.61145        -5.89964        -1.14245
H          9.88822        -2.55570        -2.33304
