         600
 CSIRO Nanostructure Databank - Neutral Graphene Oxide Data Set
C         22.99688        27.33814         0.86489
C         22.99614        28.73097         0.88223
C         22.96402        31.65101         0.56635
C         22.94498        33.02871         0.50942
C         22.93908        35.97510         0.40972
C         22.96070        37.35207         0.39089
C         22.99770        40.27383         0.43953
C         23.00750        41.65444         0.37723
C         23.05553        44.57042         0.32199
C         23.09597        45.97072         0.39213
C         25.39347        24.50837         0.45803
C         24.21994        25.19018         0.63987
C         25.43183        27.33359         0.63560
C         24.19923        26.62015         0.71469
C         25.43028        28.76277         0.71049
C         24.18864        29.46985         0.78399
C         25.38979        31.65168         0.67431
C         24.18436        30.93185         0.68698
C         25.38407        33.07188         0.56010
C         24.14680        33.78108         0.51588
C         25.37541        35.93321         0.48353
C         24.14483        35.22489         0.46316
C         25.40722        37.36662         0.38114
C         24.18174        38.07979         0.36905
C         25.42121        40.22205         0.14911
C         24.19125        39.52574         0.32308
C         25.42830        41.64580         0.03610
C         24.20672        42.37247         0.16280
C         25.43689        44.47364        -0.29826
C         24.21455        43.81139         0.05764
C         25.36469        45.94929        -0.65241
C         24.24981        46.67001         0.06163
C         25.57856        48.70586         0.22599
C         24.37802        48.05895         0.34806
C         27.90224        23.08581        -0.16234
C         27.86981        24.50580         0.09854
C         26.65123        25.19184         0.35533
C         27.88191        27.34393         0.42042
C         26.65592        26.62133         0.47971
C         27.87993        28.77310         0.54227
C         26.66631        29.46536         0.68975
C         27.92151        31.62457         0.49716
C         26.68001        30.93922         1.00505
C         27.88965        33.08896         0.17252
C         26.61430        33.81092         0.53212
C         27.85340        35.96579         0.73921
C         26.60012        35.19855         0.54649
C         27.89177        37.38780         0.36394
C         26.65515        38.07478         0.23584
C         27.86881        40.20184        -0.16228
C         26.65508        39.50135         0.05695
C         27.88033        41.60532        -0.32350
C         26.65158        42.33470        -0.22856
C         27.85272        44.40783        -0.95996
C         26.61874        43.74814        -0.45468
C         27.87742        45.92999        -1.00464
C         26.69045        46.66183        -0.54351
C         28.03668        48.70733        -0.33327
C         26.77178        48.00288        -0.19937
C         28.16406        50.06950        -0.02490
C         30.28658        23.19707        -0.74500
C         29.02731        22.46119        -0.59432
C         30.32932        24.57562        -0.24408
C         29.10297        25.23161         0.05245
C         30.33936        27.36720         0.19309
C         29.10909        26.64838         0.25187
C         30.32417        28.79990         0.23417
C         29.13311        29.48640         0.42494
C         30.37988        31.66547         0.28073
C         29.10819        30.94574         0.37258
C         30.36925        33.10231         0.47736
C         29.16688        33.77574         0.57028
C         30.41431        35.95884         0.60089
C         29.15876        35.22080         0.79920
C         30.37094        37.36987         0.36913
C         29.13500        38.03705         0.19023
C         30.39514        40.18605        -0.24836
C         29.12163        39.40686        -0.44607
C         30.37591        41.59492        -0.44134
C         29.13611        42.30894        -0.53750
C         30.36713        44.39738        -0.98983
C         29.15329        43.69663        -0.83298
C         30.38842        45.82902        -1.50849
C         29.16724        46.62521        -1.05666
C         30.37251        48.78785        -1.20671
C         29.18581        47.99351        -0.84194
C         30.46905        50.19290        -0.83012
C         29.35529        50.78252        -0.22414
C         32.81088        20.30205        -0.61194
C         31.66430        20.97493        -0.87351
C         32.84947        23.14627        -0.43320
C         31.63823        22.44042        -0.88700
C         32.80376        24.50897        -0.12594
C         31.56994        25.25041        -0.09714
C         32.80461        27.40542         0.25372
C         31.57353        26.66781         0.11944
C         32.84049        28.79264         0.19130
C         31.58160        29.53180        -0.17904
C         32.83785        31.67066         0.41317
C         31.58467        30.98561         0.21662
C         32.84290        33.09222         0.56819
C         31.62829        33.81461         0.59049
C         32.87771        36.00672         0.89501
C         31.61465        35.24068         0.62967
C         32.84769        37.41310         0.34879
C         31.63028        38.07831         0.19219
C         32.85287        40.20652        -0.15250
C         31.61235        39.49713        -0.08676
C         32.84485        41.61637        -0.36018
C         31.60882        42.31577        -0.50285
C         32.84197        44.44016        -0.70558
C         31.60013        43.72568        -0.74740
C         32.84319        45.88082        -0.81917
C         31.67632        46.55197        -1.16317
C         32.94019        48.74630        -1.14653
C         31.72566        47.99407        -1.38907
C         32.93494        50.17630        -1.19719
C         31.70498        50.89739        -1.06318
C         32.95741        52.97991        -1.17753
C         31.75514        52.31154        -1.06294
C         35.33080        18.83441        -0.32917
C         35.29707        20.25881        -0.35030
C         34.06706        20.98755        -0.40373
C         35.31710        23.10037        -0.11129
C         34.07196        22.39969        -0.30256
C         35.32557        24.48613         0.17013
C         34.03393        25.15886         0.36745
C         35.32594        27.38677         0.49647
C         34.04022        26.67172         0.56287
C         35.31275        28.79576         0.47853
C         34.06059        29.51644         0.39465
C         35.29777        31.62749         0.96137
C         34.04590        30.92732         0.49351
C         35.30708        33.10154         0.67014
C         34.11610        33.80841         0.61864
C         35.34158        35.95483         0.45370
C         34.13208        35.24539         0.58856
C         35.32801        37.39121         0.27336
C         34.09484        38.09779         0.19088
C         35.33013        40.21423        -0.12018
C         34.09254        39.50856        -0.04069
C         35.32706        41.63722        -0.28614
C         34.08306        42.32532        -0.40794
C         35.29984        44.46319        -0.43868
C         34.06396        43.74512        -0.53347
C         35.26543        45.88610        -0.39152
C         34.07990        46.60467        -0.59788
C         35.33164        48.75779        -0.68610
C         34.12071        48.04472        -0.75290
C         35.42405        50.04901        -1.48870
C         34.17484        50.88155        -1.25989
C         35.46361        53.02130        -1.27350
C         34.19355        52.28325        -1.27027
C         35.48865        54.43567        -1.33160
C         37.77717        18.81222        -0.45054
C         36.51860        18.14616        -0.34043
C         37.77599        20.25655        -0.45869
C         36.54112        20.96348        -0.34256
C         37.77920        23.08969        -0.07042
C         36.54748        22.38463        -0.20584
C         37.76111        24.47359         0.24633
C         36.54379        25.19566         0.35839
C         37.76638        27.37641         0.48882
C         36.54782        26.65083         0.50251
C         37.79069        28.79237         0.41339
C         36.55879        29.52269         0.46772
C         37.80115        31.64745         0.47738
C         36.57544        30.92772         0.55753
C         37.83118        33.07078         0.53479
C         36.59458        33.82904         0.94002
C         37.80277        35.94644         0.32851
C         36.58328        35.26014         0.48233
C         37.80119        37.37468         0.17603
C         36.56344        38.08758         0.14739
C         37.80296        40.21933        -0.06926
C         36.56347        39.51022        -0.01302
C         37.80713        41.64532        -0.20659
C         36.55789        42.35569        -0.30805
C         37.77758        44.53013        -0.29204
C         36.54156        43.78282        -0.34810
C         37.78643        45.89548        -0.06956
C         36.48585        46.58342         0.02050
C         37.78029        48.83369         0.01661
C         36.48184        48.11382        -0.09250
C         37.81465        50.26225        -0.39321
C         36.79170        50.84141        -1.36473
C         37.89943        53.04562        -0.93070
C         36.68108        52.33538        -1.12028
C         37.90248        54.46511        -0.99753
C         36.67640        55.13429        -1.22889
C         40.24077        15.97015        -0.52206
C         39.04887        16.66423        -0.40304
C         40.23344        18.76095        -1.01848
C         38.98629        18.07390        -0.51743
C         40.24913        20.27625        -0.82549
C         38.99216        20.99770        -0.52557
C         40.27929        23.09375        -0.10156
C         39.02025        22.37840        -0.24042
C         40.29856        24.47765         0.20150
C         39.03503        25.14549         0.53263
C         40.30566        27.37479         0.38934
C         39.04279        26.66880         0.64943
C         40.28276        28.78680         0.29014
C         39.03498        29.50370         0.35023
C         40.27153        31.64197         0.23296
C         39.03629        30.92294         0.32852
C         40.27261        33.06611         0.22259
C         39.03570        33.78184         0.36106
C         40.26753        35.92911         0.17304
C         39.04442        35.22340         0.31418
C         40.27084        37.36166         0.09444
C         39.03557        38.07713         0.08663
C         40.27140        40.21683        -0.04526
C         39.03466        39.50771        -0.00823
C         40.26281        41.64784        -0.13096
C         39.03560        42.34209        -0.23763
C         40.29649        44.52857        -0.12363
C         39.06028        43.80702        -0.60067
C         40.27819        45.94275         0.02324
C         39.02778        46.65813         0.01920
C         40.26496        48.79484         0.14003
C         39.03762        48.06306         0.09727
C         40.28429        50.23159        -0.01333
C         39.12474        50.94609        -0.41756
C         40.33918        53.06794        -0.38592
C         39.13447        52.33879        -0.62186
C         40.34069        54.49540        -0.50320
C         39.14162        55.19891        -0.82834
C         40.35750        57.31336        -0.73353
C         39.18769        56.60785        -0.95389
C         42.72507        15.94304        -0.51354
C         41.50025        16.64773        -0.58965
C         42.73159        18.74939        -0.42650
C         41.52081        18.06972        -0.60441
C         42.71085        20.19664        -0.00562
C         41.53468        20.98036        -0.52839
C         42.74254        23.08140        -0.01741
C         41.51229        22.40782        -0.15307
C         42.75282        24.50076         0.10242
C         41.51572        25.20160         0.23757
C         42.75236        27.35536         0.16784
C         41.51826        26.64759         0.29837
C         42.74686        28.78224         0.13492
C         41.51500        29.50016         0.18276
C         42.73960        31.64294         0.08198
C         41.50851        30.92866         0.15540
C         42.73735        33.07003         0.06545
C         41.50428        33.78373         0.12944
C         42.73830        35.92892         0.01592
C         41.50734        35.21471         0.11149
C         42.74220        37.35915        -0.02795
C         41.50698        38.07165         0.00781
C         42.74151        40.21973        -0.08600
C         41.50556        39.50396        -0.03749
C         42.72741        41.65582        -0.07142
C         41.50615        42.36815        -0.10435
C         42.74802        44.52094         0.08337
C         41.50560        43.81215        -0.05073
C         42.74430        45.94648         0.20205
C         41.50282        46.65724         0.19183
C         42.71671        48.81360         0.44369
C         41.49374        48.08809         0.26264
C         42.67208        50.22438         0.54335
C         41.49603        50.94748         0.19599
C         42.69896        53.12974         0.30942
C         41.52004        52.38449         0.04238
C         42.73104        54.53061         0.14643
C         41.54220        55.22119        -0.25891
C         42.74068        57.36224        -0.06935
C         41.54533        56.64096        -0.36458
C         43.92774        16.62565        -0.45534
C         45.21496        18.77819        -0.27041
C         43.96128        18.03992        -0.36768
C         45.22231        20.21233        -0.22046
C         44.00528        20.94500        -0.17723
C         45.23013        23.07136        -0.10646
C         43.99337        22.34575        -0.10427
C         45.22755        24.49827        -0.04983
C         43.99252        25.21676         0.05488
C         45.22971        27.35450        -0.00948
C         43.99034        26.63838         0.07223
C         45.21956        28.78796         0.00543
C         43.98308        29.50055         0.05520
C         45.20993        31.64435        -0.01665
C         43.97678        30.92534         0.03691
C         45.20697        33.07341        -0.04071
C         43.97381        33.78801        -0.00469
C         45.21384        35.92401        -0.13653
C         43.97455        35.21298        -0.03304
C         45.21145        37.36473        -0.17415
C         43.98374        38.07279        -0.11650
C         45.20817        40.23448        -0.21301
C         43.97677        39.51137        -0.13157
C         45.17771        41.65610        -0.20378
C         43.96988        42.37308        -0.07301
C         45.21233        44.53347         0.06503
C         43.97535        43.80989         0.02224
C         45.21484        45.95617         0.22783
C         43.97734        46.66028         0.29931
C         45.19796        48.77960         0.50627
C         43.97495        48.09094         0.45014
C         45.18082        50.21959         0.83028
C         43.87593        50.96465         0.94618
C         45.18960        53.17275         0.75507
C         43.85609        52.49158         1.03873
C         45.17341        54.59974         0.63422
C         43.93861        55.28269         0.39798
C         43.88980        56.70347         0.29585
C         47.65545        18.80297        -0.23855
C         46.45179        18.10940        -0.27190
C         47.69322        20.21072        -0.20549
C         46.46153        20.92774        -0.19845
C         47.69659        23.08114        -0.18861
C         46.45956        22.35803        -0.15492
C         47.68247        24.48708        -0.21706
C         46.46352        25.20827        -0.12352
C         47.69990        27.37200        -0.08370
C         46.45984        26.64807        -0.09601
C         47.68804        28.79302        -0.02435
C         46.44862        29.50739        -0.02331
C         47.68027        31.65871        -0.04880
C         46.44362        30.93447        -0.03497
C         47.68453        33.07039        -0.10442
C         46.43957        33.79162        -0.12056
C         47.70915        35.92701        -0.53237
C         46.43020        35.20448        -0.19179
C         47.69168        37.38886        -0.17766
C         46.46300        38.08387        -0.19240
C         47.70219        40.20269        -0.22797
C         46.46035        39.51947        -0.21817
C         47.73355        41.65431        -0.46694
C         46.41424        42.41769        -0.43539
C         47.67749        44.53935        -0.07328
C         46.44242        43.85403        -0.12090
C         47.69246        45.95908         0.15908
C         46.46278        46.65497         0.28674
C         47.67435        48.78589         0.59953
C         46.45723        48.09062         0.45081
C         47.68729        50.26221         0.51716
C         46.40158        51.01961         0.56824
C         47.66713        53.18434         0.76183
C         46.40144        52.48829         0.78174
C         47.61789        54.61334         0.71007
C         46.42484        55.28547         0.62806
C         50.18560        20.24775        -0.05136
C         48.94566        20.94009        -0.15427
C         50.19200        23.06466        -0.08944
C         48.94694        22.35098        -0.17390
C         50.20629        24.48559        -0.12259
C         48.95798        25.22783        -0.52452
C         50.15661        27.36047         0.06676
C         48.94718        26.67551        -0.10218
C         50.15596        28.80223         0.12780
C         48.92226        29.51303         0.02172
C         50.14726        31.64754         0.08420
C         48.91903        30.93636         0.01276
C         50.15597        33.07500         0.09821
C         48.93247        33.79184        -0.04369
C         50.16187        35.91094         0.11204
C         48.95460        35.20194        -0.09835
C         50.15755        37.36489         0.09590
C         48.92693        38.07793        -0.04045
C         50.16987        40.23420         0.00681
C         48.92650        39.51397        -0.06450
C         50.19539        41.67144        -0.04629
C         48.97012        42.41134        -0.22446
C         50.16745        44.57025        -0.19399
C         48.91420        43.80686        -0.18246
C         50.16431        45.99965         0.15457
C         48.94558        46.67361         0.27611
C         50.13984        48.81723         0.62520
C         48.93638        48.10487         0.54908
C         50.17711        50.22845         1.05248
C         48.89101        51.00956         0.96668
C         50.17283        53.13388         0.93745
C         48.89749        52.48485         0.84891
C         51.37773        20.92370         0.04842
C         52.65568        23.06237         0.14860
C         51.41782        22.34464         0.03651
C         52.62993        24.46430         0.22705
C         51.41030        25.18839         0.05376
C         52.62733        27.33558         0.23934
C         51.41785        26.64084         0.11953
C         52.64281        28.80482         0.57088
C         51.36699        29.52215         0.22900
C         52.61979        31.65792         0.22938
C         51.37406        30.92657         0.17632
C         52.61889        33.04517         0.33177
C         51.38585        33.78607         0.27196
C         52.62239        35.94371         0.72179
C         51.36856        35.19847         0.33141
C         52.61919        37.39072         0.32026
C         51.38748        38.08055         0.19038
C         52.63088        40.22032         0.23109
C         51.38920        39.52034         0.12919
C         52.64376        41.64625         0.30315
C         51.42057        42.34884         0.12047
C         52.62251        44.54459         0.52319
C         51.46521        43.80747        -0.05543
C         52.64278        46.01635         0.37359
C         51.42952        46.68276         0.24355
C         52.70147        48.89449         0.26873
C         51.39723        48.15866         0.22964
C         52.75962        50.30516         0.78003
C         51.46824        50.99896         1.12095
C         51.35861        52.46871         1.07664
C         55.11910        23.02534         0.04768
C         53.92759        22.37763         0.03560
C         55.20919        24.45425         0.38006
C         53.87922        25.20327         0.45873
C         55.09741        27.35565         0.06228
C         53.88115        26.65948         0.25620
C         55.05303        28.77262        -0.14946
C         53.87649        29.51528         0.06185
C         55.05883        31.67833        -0.18875
C         53.86464        30.93146         0.04810
C         55.11504        33.05593         0.02713
C         53.92301        33.75010         0.63059
C         55.07781        35.91737         0.13863
C         53.89584        35.22782         0.35069
C         55.09203        37.36829         0.14978
C         53.85550        38.07959         0.24147
C         55.10112        40.22098         0.22428
C         53.86535        39.51329         0.22873
C         55.10460        41.64762         0.36525
C         53.88723        42.33436         0.46471
C         55.18405        44.52965         1.00947
C         53.87619        43.77673         0.80070
C         55.13731        45.98218         0.54979
C         53.92331        46.69894         0.42977
C         55.17681        48.82843         0.33203
C         53.96490        48.12177         0.33956
C         55.14688        50.28724         0.23993
C         54.01945        51.00630         0.43359
C         57.66366        24.56493        -0.09686
C         56.42602        25.23828         0.05302
C         57.56470        27.36331        -0.39378
C         56.35873        26.64182        -0.08119
C         57.55023        28.76839        -0.62313
C         56.25022        29.45457        -0.66199
C         57.53978        31.67566        -0.68335
C         56.24706        30.97884        -0.69609
C         57.54482        33.08384        -0.50127
C         56.32050        33.78926        -0.19708
C         57.54731        35.92986        -0.23034
C         56.32481        35.20243        -0.08869
C         57.55379        37.36044        -0.12989
C         56.31657        38.07785         0.04341
C         57.57013        40.22524         0.04810
C         56.32957        39.50473         0.10989
C         57.58539        41.65536         0.15401
C         56.36244        42.37922         0.35877
C         57.61395        44.49639         0.38905
C         56.39065        43.77367         0.50003
C         57.61221        45.93374         0.43453
C         56.37407        46.67417         0.46470
C         57.67194        48.76585         0.31652
C         56.40666        48.10017         0.35937
C         58.82977        25.25591        -0.35284
C         59.98938        27.39256        -0.80230
C         58.80276        26.66467        -0.50989
C         59.96116        28.75907        -0.95232
C         58.73879        29.48770        -0.86155
C         59.94024        31.69103        -1.00282
C         58.73439        30.95122        -0.89095
C         59.95259        33.06613        -0.88363
C         58.76899        33.79768        -0.60895
C         59.97508        35.97458        -0.54442
C         58.77049        35.23266        -0.45795
C         59.97957        37.34609        -0.42377
C         58.77594        38.07303        -0.22331
C         60.00490        40.24571        -0.16864
C         58.78849        39.51502        -0.11501
C         60.02145        41.61716        -0.06348
C         58.82034        42.35950         0.10089
C         60.05628        44.53491         0.14667
C         58.83813        43.79587         0.20356
C         60.05936        45.90599         0.22848
C         58.83849        46.63117         0.34061
C         58.84545        48.05946         0.32011
O         56.00843        30.19159        -1.91413
O         51.98862        48.76990        -1.00870
O         54.61188        24.79641         1.67455
O         47.04539        50.72230        -0.72650
O         52.91766        44.08006         1.89378
O         30.96056        23.02287        -2.04179
O         28.46371        35.65432         2.05064
O         37.53413        49.92762         1.00423
O         39.07408        25.81198         1.84308
O         51.03938        44.27841        -1.36278
O         52.36089        50.46983         2.18133
O         27.63396        45.09620        -2.23381
O         49.35295        50.48314         2.25631
O         33.89938        25.75987         1.70641
O         44.55684        50.43711         2.14570
O         30.91578        48.46480        -2.51849
O         41.09336        20.84204        -1.91414
O         37.45647        50.78050        -2.61616
O         47.06029        42.06217        -1.70970
O         36.22841        47.42333         1.18502
O         43.58702        52.80462         2.44345
H         44.06451        52.12585         2.97523
O         40.16319        18.53535        -2.46753
H         40.72139        19.23619        -2.87971
O         39.15433        43.83131        -2.07933
H         39.98636        43.37343        -2.32616
O         54.09281        33.63941         2.09632
H         53.43367        34.26431         2.49174
O         47.76697        35.90619        -2.01821
H         46.99200        36.41170        -2.34536
O         35.26904        31.52871         2.43613
H         35.92002        32.19743         2.76979
O         29.06825        39.12590        -1.90191
H         29.05688        39.99166        -2.36413
O         27.88972        33.15857        -1.31535
H         28.69056        32.68597        -1.62949
O         36.67399        33.90244         2.44124
H         35.97196        34.52809         2.72831
O         52.72838        28.85794         2.04357
H         53.49845        28.31291         2.31330
O         49.00519        25.27789        -2.00694
H         49.81264        25.77699        -2.25518
O         30.33216        45.74494        -2.96674
H         30.41316        46.66942        -3.30124
O         55.39648        44.61566         2.45352
H         54.49978        44.67165         2.86005
O         35.33951        49.59649        -2.86289
H         36.17603        49.96531        -3.28936
O         52.59770        35.95509         2.22319
H         53.27890        36.60048         2.51323
O         26.78168        31.02956         2.47863
H         27.59278        30.54735         2.74752
O         42.46295        20.15543         1.44718
H         43.23482        19.71999         1.86739
O         32.90885        36.17783         2.37414
H         32.04423        36.56097         2.63886
O         31.55912        29.52742        -1.65770
H         30.69774        29.90322        -1.93856
O         25.02089        45.99066        -2.08718
H         25.80160        45.61346        -2.56370
H         22.04709        26.79002         0.94423
H         22.03201        29.24846         0.97445
H         22.00745        31.11255         0.54416
H         21.97410        33.53885         0.45517
H         21.96819        35.46269         0.39675
H         22.00301        37.88771         0.36237
H         22.03731        39.76546         0.59337
H         22.05290        42.18711         0.47442
H         22.11977        44.06773         0.59765
H         22.22470        46.51581         0.78506
H         25.36305        23.41248         0.39456
H         23.26952        24.64244         0.71780
H         25.63739        49.77042         0.48363
H         23.50047        48.59895         0.73417
H         26.97665        22.50106        -0.07591
H         27.31374        50.61530         0.40267
H         28.99025        21.39953        -0.87376
H         29.39459        51.83668         0.08292
H         32.79368        19.20468        -0.63645
H         30.75064        20.42321        -1.13269
H         32.94335        54.07743        -1.17658
H         30.82359        52.88937        -0.98993
H         34.39546        18.26190        -0.28206
H         34.56123        55.00323        -1.48337
H         36.48727        17.04932        -0.31103
H         36.64577        56.22900        -1.30231
H         40.23823        14.87229        -0.45637
H         38.13403        16.08936        -0.20183
H         40.36654        58.40891        -0.82629
H         38.28332        57.16730        -1.22579
H         42.71546        14.84355        -0.51195
H         42.73018        58.45981        -0.13603
H         44.86013        16.04653        -0.42948
H         44.78632        57.29684         0.51861
H         48.58587        18.22113        -0.24909
H         46.48804        17.01289        -0.30705
H         48.55088        55.19181         0.70461
H         46.44807        56.38029         0.54854
H         50.20300        19.15078        -0.02496
H         50.20721        54.23198         0.91211
H         52.30450        20.34596         0.15811
H         52.28609        53.04777         1.18588
H         56.03335        22.46971        -0.20373
H         53.92533        21.30232        -0.18845
H         56.08179        50.82163         0.02308
H         54.04539        52.10487         0.40504
H         57.70660        23.47497         0.03031
H         57.71148        49.86216         0.27825
H         59.78624        24.72099        -0.43688
H         60.93854        26.84585        -0.89713
H         60.90205        29.28558        -1.15796
H         60.89108        31.17649        -1.19227
H         60.91180        33.58865        -0.99256
H         60.93041        35.45968        -0.70781
H         60.93968        37.87191        -0.49725
H         60.96127        39.72212        -0.29178
H         60.98878        42.13343        -0.10816
H         61.01427        44.01120         0.03349
H         61.00638        46.46216         0.17645
H         59.81015        48.58531         0.27753
