         424
 CSIRO Nanostructure Databank - Neutral Graphene Oxide Data Set
C          1.17438         4.29356        -1.56848
C          0.05462         5.05515        -1.86364
C          1.43789         6.97442        -2.48823
C          0.17517         6.38135        -2.30943
C          1.60242         8.34903        -2.94177
C          0.47144         9.25114        -3.09654
C          1.57622        11.38937        -2.37220
C          0.45438        10.60183        -2.87239
C          1.42942        12.50229        -1.48705
C          0.15241        13.15088        -1.26450
C          1.13572        14.75358         0.40607
C          0.01718        14.22505        -0.45593
C          1.13290        16.26105         0.59225
C         -0.03106        17.00535         0.51300
C          1.05063        19.07047         1.25314
C         -0.05018        18.41081         0.79357
C          1.04631        20.52044         1.70361
C         -0.21103        21.30419         1.41758
C          1.06284        23.40948         1.18929
C         -0.17808        22.63995         1.23499
C          1.07142        24.84154         1.12745
C         -0.12672        25.60376         1.17729
C          1.13332        27.69058         1.05146
C         -0.09741        26.97786         1.12562
C          1.14725        29.15424         1.00466
C         -0.02442        29.90239         1.13797
C          1.14052        32.00991         0.74187
C         -0.02791        31.29983         1.02236
C          1.14870        33.47693         0.64895
C         -0.02608        34.25300         0.87196
C          1.18801        36.32799         0.47463
C         -0.01248        35.63041         0.76682
C          1.23737        37.75197         0.35103
C          3.63873         4.10049        -1.40104
C          2.47607         4.84990        -1.71186
C          3.91279         6.74862        -2.30946
C          2.60278         6.19656        -2.18029
C          4.07302         8.08196        -2.83761
C          2.90266         8.80569        -3.18521
C          4.02030        11.46492        -2.00773
C          2.88413        11.00020        -2.71164
C          3.83909        12.42384        -0.99864
C          2.57230        13.02008        -0.80758
C          3.65577        14.86622         0.40797
C          2.48788        14.21326         0.00332
C          3.59329        16.23906         0.87996
C          2.35697        16.90730         0.94527
C          3.58851        19.05874         1.30869
C          2.31476        18.29145         1.54244
C          3.55710        20.50206         1.05256
C          2.25013        21.24106         1.10230
C          3.52111        23.40051         0.99053
C          2.27943        22.71978         1.14839
C          3.54276        24.80756         0.91303
C          2.31572        25.53933         1.01278
C          3.65577        27.67977         1.09736
C          2.33031        26.96413         0.99062
C          3.60625        29.12514         0.64908
C          2.38160        29.84555         0.76070
C          3.58479        31.94180         0.32842
C          2.36218        31.26962         0.59761
C          3.56359        33.39078        -0.08695
C          2.34056        34.15180         0.35272
C          3.61777        36.26287         0.06065
C          2.38253        35.57413         0.28904
C          3.64887        37.67467        -0.03906
C          2.41842        38.40056         0.08373
C          6.10989         3.90551        -1.20775
C          4.92437         4.66084        -1.50937
C          6.41939         6.60535        -2.16547
C          5.05081         6.00984        -1.95068
C          6.44004         8.12015        -2.08903
C          5.35205         8.69875        -2.75482
C          6.41362        11.12063        -1.37685
C          5.32786        10.88436        -2.19361
C          6.32112        12.25110        -0.49347
C          4.96539        12.76141        -0.06272
C          6.11312        14.86212         0.69092
C          4.94556        14.22229         0.30811
C          6.06667        16.26974         1.05191
C          4.81695        16.94583         1.10764
C          6.04815        19.11841         1.20923
C          4.80074        18.38251         1.24415
C          6.05939        20.54177         1.19515
C          4.81095        21.27129         1.10507
C          6.00504        23.39617         0.87683
C          4.76912        22.66286         1.00926
C          6.00307        24.71226         0.46690
C          4.78234        25.50432         0.58991
C          5.94325        27.62591        -0.13452
C          4.81644        26.88338         0.54537
C          6.06141        29.08315         0.23671
C          4.80603        29.80733         0.38026
C          6.04560        31.96146         0.05487
C          4.77471        31.22753         0.23764
C          6.08101        33.38733         0.56988
C          4.83690        34.14091         0.19869
C          6.11268        36.22365        -0.05740
C          4.85797        35.51989         0.07727
C          6.10525        37.63985        -0.28248
C          4.89059        38.34181        -0.24360
C          8.55479         3.76162        -0.89955
C          7.36765         4.51059        -1.13336
C          8.64928         6.63854        -1.08124
C          7.49404         5.94273        -1.36812
C          8.72116         8.07262        -1.23303
C          7.60357         8.82319        -1.62627
C          8.82445        10.89147        -0.72041
C          7.72366        10.37226        -1.63530
C          8.74599        12.20257        -0.14946
C          7.47490        12.87636        -0.02155
C          8.57744        14.84465         0.95989
C          7.40803        14.19158         0.58620
C          8.50266        16.20889         1.62577
C          7.26266        16.97734         1.26884
C          8.51788        19.11431         1.29728
C          7.27792        18.40395         1.28415
C          8.52336        20.53437         1.31628
C          7.29147        21.23542         1.27386
C          8.51801        23.38306         1.04066
C          7.24019        22.74399         1.44773
C          8.58309        24.58019         0.15253
C          7.27149        25.37095         0.05322
C          8.56840        27.59833         0.04575
C          7.28296        26.86212        -0.14429
C          8.54351        29.01247         0.10719
C          7.28063        29.72368         0.13988
C          8.56683        31.92742         0.54034
C          7.32271        31.20326         0.06786
C          8.54883        33.38077         0.11313
C          7.35699        34.08997         0.16834
C          8.53946        36.15166        -0.48194
C          7.32634        35.49514        -0.10451
C          8.53311        37.58876        -0.68443
C          7.35311        38.29937        -0.55012
C         10.99228         3.68800        -0.66409
C          9.78875         4.40291        -0.71633
C         11.11917         6.54627        -0.54978
C          9.77340         5.88629        -0.40462
C         11.19156         7.94519        -0.59939
C         10.06587         8.77117        -1.17244
C         11.17363        10.74582        -0.02355
C          9.99625        10.15576        -0.57657
C         11.14595        12.11009         0.40909
C          9.90403        12.81883         0.38036
C         11.04407        14.82389         1.22649
C          9.85024        14.17570         0.86175
C         11.01337        16.24170         1.63169
C          9.76235        17.01081         1.43746
C         11.04606        19.11990         0.98779
C          9.76575        18.37001         1.30651
C         11.00721        20.58908         1.34827
C          9.79418        21.24673         1.40881
C         11.03119        23.32388         0.88414
C          9.77029        22.76584         1.58157
C         11.00170        24.81490         0.66729
C          9.81618        25.44826         0.39294
C         11.02553        27.62410         0.26748
C          9.78739        26.88952         0.18450
C         11.00340        29.03524         0.23628
C          9.78084        29.74686         0.18096
C         11.01404        31.88887        -0.10136
C          9.81121        31.17831         0.16502
C         10.97909        33.29240        -0.41062
C          9.75449        34.02300        -0.31979
C         10.87693        36.03283        -1.36561
C          9.71547        35.40613        -0.64486
C         10.94094        37.53099        -1.19428
C          9.79446        38.24490        -0.96028
C         13.45936         3.61159        -0.51509
C         12.25543         4.32986        -0.49664
C         13.54105         6.42789        -0.20330
C         12.29219         5.77458        -0.38992
C         13.57694         7.84002        -0.04007
C         12.39549         8.59943        -0.24380
C         13.59375        10.64766         0.45948
C         12.39577        10.01382         0.03726
C         13.58225        12.03839         0.83251
C         12.33364        12.75009         0.84836
C         13.51578        14.83544         1.44381
C         12.30268        14.14556         1.19892
C         13.57264        16.25258         1.55931
C         12.30375        16.98929         1.72822
C         13.49674        19.12335         1.50840
C         12.31340        18.44385         1.47290
C         13.48471        20.57517         1.42591
C         12.29267        21.27474         1.41655
C         13.54990        23.47076         1.09174
C         12.29295        22.78674         1.57232
C         13.55470        24.78770         0.71839
C         12.29292        25.44970         0.21646
C         13.51535        27.62734         0.29707
C         12.28484        26.94169         0.34479
C         13.52810        29.04561         0.16493
C         12.27324        29.80785         0.46919
C         13.46388        31.84968        -0.43789
C         12.25280        31.19442        -0.10746
C         13.43105        33.23989        -0.80117
C         12.19791        33.95844        -0.79112
C         13.38614        36.00434        -1.47344
C         12.18908        35.33138        -1.13928
C         13.36639        37.46012        -1.62074
C         12.20922        38.16915        -1.43271
C         15.94657         3.56630        -0.47102
C         14.72195         4.25929        -0.37620
C         15.97458         6.34088         0.11824
C         14.74889         5.67720        -0.14969
C         15.97639         7.72736         0.44705
C         14.80459         8.48086         0.32538
C         16.02574        10.57247         0.83094
C         14.80823         9.90827         0.55643
C         16.02744        11.98616         1.08010
C         14.78718        12.67929         1.17169
C         16.03059        14.84737         1.46739
C         14.76935        14.07081         1.74573
C         16.02435        16.23026         1.41634
C         14.77745        16.94949         1.55673
C         16.03303        19.13122         1.33446
C         14.80071        18.42610         1.87942
C         16.04155        20.52288         1.26689
C         14.79077        21.27782         1.54136
C         16.06579        23.44190         0.99311
C         14.81297        22.77217         1.36824
C         16.04873        24.83217         0.75649
C         14.79857        25.52498         0.60133
C         16.00654        27.65330         0.26240
C         14.77513        26.91018         0.35152
C         15.96957        29.02707        -0.01027
C         14.72716        29.73533        -0.08154
C         15.89643        31.78897        -0.89674
C         14.70665        31.14311        -0.42455
C         15.83232        33.12344        -1.36241
C         14.62485        33.88756        -1.23880
C         15.77814        35.90726        -2.19157
C         14.58846        35.26499        -1.59441
C         15.81324        37.44242        -2.29846
C         14.65131        38.24691        -1.75188
C         18.43074         3.57309        -0.59289
C         17.18167         4.24399        -0.35266
C         18.45401         6.32616         0.09986
C         17.20494         5.62570        -0.00977
C         18.49363         7.68452         0.52116
C         17.22592         8.33687         1.02761
C         18.46057        10.51066         1.05568
C         17.25769         9.84383         0.91609
C         18.48300        11.95005         1.12634
C         17.26537        12.65927         1.22938
C         18.52519        14.82786         1.15732
C         17.31780        14.09989         1.67800
C         18.48330        16.24174         1.00991
C         17.26125        16.96916         1.20363
C         18.45187        19.09456         0.79275
C         17.24052        18.38390         1.10542
C         18.45332        20.52551         0.74060
C         17.24678        21.25008         0.97385
C         18.49205        23.38568         0.68638
C         17.25990        22.68279         0.89266
C         18.49959        24.81432         0.73005
C         17.29098        25.55232         0.67856
C         18.48515        27.69188         0.29611
C         17.27730        26.97287         0.46144
C         18.48541        29.04859        -0.14941
C         17.22762        29.85537         0.03502
C         18.34896        31.68155        -1.24225
C         17.16486        31.10081        -0.81558
C         18.33493        32.96985        -1.96287
C         17.00622        33.73302        -2.00135
C         18.25142        35.85536        -2.47159
C         17.05671        35.19525        -2.20063
C         18.27328        37.31068        -2.57259
C         17.12706        38.06022        -2.35246
C         19.61845         4.25227        -0.54771
C         20.88482         6.35903        -0.12751
C         19.66550         5.64553        -0.20397
C         20.90729         7.67987         0.29261
C         19.71421         8.35222         0.65003
C         20.96322        10.53622         1.10721
C         19.72265         9.71759         1.32615
C         20.93981        11.89414         1.02156
C         19.72432        12.65804         1.06917
C         20.89004        14.82331         0.58107
C         19.71675        14.10094         0.94993
C         20.86784        16.19161         0.44572
C         19.67809        16.94288         0.65665
C         20.83592        19.10271         0.21916
C         19.65641        18.37401         0.54971
C         20.84554        20.47379         0.18628
C         19.67131        21.23117         0.46647
C         20.93799        23.38609         0.37196
C         19.70155        22.65763         0.49602
C         20.99950        24.72880         0.57498
C         19.78758        25.50017         0.83358
C         20.98615        27.72972         0.09879
C         19.78079        27.06777         0.58693
C         20.91296        28.95929        -0.47756
C         19.67077        29.68637        -0.52973
C         20.79273        31.79999        -1.22514
C         19.63378        31.06356        -0.99508
C         20.76075        33.13800        -1.68042
C         19.57994        33.75253        -2.06935
C         20.69099        35.85485        -2.75187
C         19.52456        35.14851        -2.47076
C         20.68610        37.25853        -2.94247
C         19.52508        37.97643        -2.80130
O          7.24815        25.95573        -1.31234
O         11.60446        16.55403         2.95682
O         19.88917        26.47295         1.91547
O         14.86373        22.15047         2.74366
O          6.77294        31.73574        -1.18891
O          2.71010        20.74003        -0.18820
O         17.50368        32.97939        -3.16652
O          3.05384        10.08435        -3.76426
O         15.47534        36.62227        -3.44905
O          5.48491        10.00256        -3.27068
O          7.06353        22.95775         2.90412
H          7.96954        22.93916         3.30609
O          5.47768        27.71469        -1.52330
H          5.81693        26.91060        -1.98431
O         11.09155        22.74827        -0.46076
H         10.27148        23.05312        -0.93902
O          2.29205        18.04206         3.03041
H          1.62636        17.33591         3.18607
O          3.48295        33.34169        -1.56432
H          3.45779        34.26759        -1.88781
O         19.68308         9.40007         2.77516
H         19.67963        10.25514         3.25751
O          6.04401        33.27384         2.03086
H          6.14061        34.17466         2.40461
O          6.75588         6.30440        -3.58569
H          7.68035         6.60070        -3.73053
O          9.74384        23.05347         3.01336
H         10.64465        22.88020         3.38942
O          8.17339        10.70628        -2.99120
H          7.41962        10.49492        -3.59157
O         11.12986        19.08337        -0.48649
H         11.59927        19.89348        -0.78030
O         12.32108        30.01860         1.95246
H         13.18946        30.43146         2.15150
O         10.43085         8.96490        -2.58751
H          9.79311         9.62910        -2.95382
O         14.91651        18.51132         3.33846
H         14.95617        19.46225         3.57757
O          4.65750        12.02214         1.18617
H          5.36089        12.24311         1.83362
O          0.88396        14.21302         1.75909
H          1.02088        13.24252         1.71310
O         14.74948        13.86752         3.23525
H         14.42472        14.70710         3.63068
O          8.81458        24.01660        -1.20532
H          8.53059        24.72296        -1.83753
O          1.20903        20.53156         3.15170
H          1.67793        19.69800         3.41300
O         12.30315        23.07389         3.00466
H         13.18545        22.75684         3.33130
O          8.52045        31.89063         2.00410
H          9.40948        32.12722         2.34239
O         15.01268        38.77488        -0.45786
H         14.95721        38.05256         0.20075
O         12.32262        25.17218        -1.23896
H         12.10766        24.21143        -1.33270
O         17.18785         8.04599         2.46761
H         18.03592         8.39718         2.84096
O         10.59375        35.82276        -2.80233
H          9.72003        36.22870        -2.98810
O          3.93191        27.76237         2.55180
H          3.15908        28.19787         2.97116
O         17.48715        14.02576         3.14660
H         16.59255        13.79418         3.50799
O         17.29965        30.35531         1.43093
H         17.44179        29.57505         2.00932
O          8.40206        15.94079         3.07063
H          7.53769        15.50636         3.23059
O          9.48159         5.97199         1.03750
H         10.17174         5.45628         1.50632
H          1.06610         3.25829        -1.21487
H         -0.94788         4.62009        -1.74500
H         -0.73827         6.95041        -2.52906
H         -0.50247         8.78431        -3.31524
H         -0.52559        11.10057        -2.93131
H         -0.72577        12.77917        -1.81233
H         -0.98302        14.66335        -0.32782
H         -0.97811        16.53564         0.21739
H         -0.99618        18.94785         0.63381
H         -1.18296        20.79248         1.47722
H         -1.12891        23.17565         1.10217
H         -1.09778        25.09845         1.26070
H         -1.04891        27.52438         1.15411
H         -0.98162        29.40482         1.34131
H         -0.98412        31.82497         1.14807
H         -0.97444        33.75432         1.11370
H         -0.94075        36.20060         0.91748
H          0.30712        38.32623         0.47203
H          3.52811         3.06225        -1.05372
H          2.43910        39.49631        -0.00822
H          6.01354         2.83100        -0.99212
H          4.89369        39.43424        -0.37513
H          8.51030         2.66204        -0.93259
H          7.35549        39.39095        -0.68961
H         10.96965         2.59611        -0.80525
H          9.82359        39.34572        -0.95624
H         13.43237         2.52005        -0.65307
H         12.24536        39.26976        -1.43507
H         15.94313         2.48686        -0.68492
H         14.48073        39.13396        -2.41413
H         18.41358         2.50327        -0.84795
H         17.20607        39.14645        -2.19792
H         20.56300         3.73050        -0.76123
H         21.82598         5.84621        -0.37353
H         21.87492         8.19338         0.37517
H         21.93646        10.02547         1.12876
H         21.89837        12.42556         0.93395
H         21.83094        14.28855         0.39510
H         21.79923        16.70158         0.16756
H         21.76811        18.56842        -0.00383
H         21.78351        20.98434        -0.06628
H         21.87409        22.84138         0.19324
H         21.97260        25.23766         0.58964
H         21.96050        27.24132         0.23368
H         21.83420        29.43171        -0.84378
H         21.77521        31.36633        -0.99634
H         21.71277        33.68387        -1.73132
H         21.65349        35.32833        -2.80670
H         21.63335        37.77210        -3.15795
H         19.52854        39.07165        -2.89607
