         668
 CSIRO Nanostructure Databank - Neutral Graphene Oxide Data Set
C          5.82900        31.80625         0.17890
C          5.86301        33.16878         0.26179
C          8.30746        27.58079         0.38642
C          8.27702        28.90886         0.00171
C          7.04808        29.66667         0.03876
C          8.24180        31.77816        -0.37853
C          7.02530        31.04893        -0.09533
C          8.28589        33.15024        -0.24989
C          7.09388        33.89470         0.08479
C          8.30193        36.05317        -0.09470
C          7.13300        35.28644         0.19175
C          8.28139        37.44475        -0.03719
C         10.71885        23.20873         0.09052
C         10.68593        24.62969         0.15969
C          9.52798        25.38111         0.20978
C         10.76282        27.49415        -0.11686
C          9.59459        26.84065         0.58128
C         10.66489        28.83363        -0.58650
C          9.48942        29.56861        -0.44513
C         10.72153        31.73522        -0.81250
C          9.41169        31.00076        -0.93689
C         10.76694        33.14621        -0.79480
C          9.60697        33.88522        -0.16416
C         10.61952        36.06725        -0.89553
C          9.53425        35.36407        -0.47800
C         10.62095        37.60048        -1.01762
C          9.38830        38.27723        -0.38422
C         10.24587        40.65349        -0.35834
C          9.25870        39.63996        -0.09692
C         10.53278        41.84767         0.26229
C         13.19281        18.84342         0.52064
C         13.14950        20.21318         0.51914
C         11.85150        20.99826         0.67688
C         13.14231        23.13582         0.17499
C         11.93231        22.47269         0.27466
C         13.13575        24.57799        -0.27844
C         11.99916        25.35902         0.39947
C         13.18253        27.38210        -0.54098
C         11.98347        26.77790        -0.14287
C         13.16551        28.74430        -1.12861
C         11.84000        29.50170        -1.27879
C         13.21004        31.66386        -1.22763
C         11.98452        30.93610        -0.71989
C         13.15915        33.12529        -1.62697
C         11.89808        33.84962        -1.19467
C         13.13666        35.93060        -0.72043
C         11.86508        35.35573        -1.40658
C         13.21004        37.43006        -0.67776
C         11.92504        38.16391        -0.39336
C         13.20766        40.26543        -0.16739
C         12.16441        39.61477        -0.72115
C         13.12435        41.66702         0.39593
C         11.85473        42.49207         0.15456
C         13.21196        44.55119         0.52916
C         11.96149        43.85160         0.27830
C         13.21228        45.91254         0.72645
C         15.79302        14.60353         0.84157
C         15.74307        15.96181         0.65660
C         14.49455        16.69909         0.55744
C         15.69202        18.83815         0.74057
C         14.43287        18.07585         0.51568
C         15.71383        20.27864         0.38295
C         14.39263        20.98738         0.29298
C         15.69322        23.09141         0.02498
C         14.42817        22.47260         0.58593
C         15.65508        24.44746        -0.63549
C         14.49356        25.25812        -0.03602
C         15.63558        27.37853        -0.71230
C         14.45307        26.70794        -0.48609
C         15.69744        28.87773        -0.54731
C         14.44575        29.52149        -1.13215
C         15.69240        31.72594        -1.25141
C         14.39574        31.00532        -1.24020
C         15.71751        33.17974        -1.46374
C         14.42877        33.82144        -1.02572
C         15.69967        35.98693        -0.90871
C         14.41261        35.31251        -1.32159
C         15.67283        37.35759        -0.59305
C         14.39772        38.05787        -0.42905
C         15.67460        40.21875        -0.05565
C         14.40742        39.43267         0.22894
C         15.64543        41.67502         0.10108
C         14.43598        42.40412         0.26468
C         15.70530        44.44407         0.76062
C         14.46318        43.78963         0.53255
C         15.73001        45.83199         1.26515
C         14.39633        46.62679         1.22678
C         15.73681        48.71491         1.41532
C         14.52921        48.07330         1.14119
C         15.80761        50.14149         1.32404
C         18.32482        10.36631         1.25882
C         18.29585        11.77496         1.25375
C         17.06845        12.49262         1.07339
C         18.29502        14.60265         0.99040
C         17.04673        13.87648         0.95921
C         18.30188        16.00220         0.83112
C         17.03730        16.69940         0.38939
C         18.27428        18.88339         0.80940
C         16.99642        18.13160         0.85659
C         18.21319        20.36605         0.83222
C         16.94724        21.05520         0.55355
C         18.16208        23.12526        -0.20016
C         16.90206        22.42566         0.18381
C         18.14696        24.60130        -0.29575
C         16.95702        25.21132        -0.49508
C         18.17884        27.36565        -1.08204
C         16.89656        26.63816        -0.87989
C         18.13050        28.84480        -1.22937
C         16.97047        29.51957        -1.08888
C         18.21700        31.71850        -1.58556
C         16.98694        30.99900        -1.17855
C         18.19254        33.16818        -1.59109
C         16.91736        33.86415        -1.40395
C         18.14637        35.99746        -1.05280
C         16.91625        35.30005        -1.13916
C         18.11975        37.39447        -0.75970
C         16.89203        38.07852        -0.51384
C         18.09804        40.26453        -0.51079
C         16.83840        39.52731        -0.33862
C         18.13024        41.73588        -0.19294
C         16.87019        42.39710         0.18377
C         18.21244        44.38023         1.07280
C         16.91178        43.74626         0.57924
C         18.24822        45.89994         0.84291
C         16.98287        46.60148         1.28327
C         18.26173        48.62791         1.98131
C         16.97482        47.95138         1.53004
C         18.23625        50.15376         1.88676
C         17.00396        50.86046         1.45382
C         18.30004        52.97032         1.16802
C         17.07025        52.23911         1.19949
C         18.31116        54.35479         0.88393
C         20.77547         6.11562         0.54493
C         20.73138         7.49040         0.97132
C         19.56363         8.22294         1.04725
C         20.75650        10.33135         1.54824
C         19.55740         9.63965         1.33221
C         20.76690        11.80754         1.82730
C         19.51591        12.51124         1.37327
C         20.77714        14.63444         1.22076
C         19.52720        13.90527         1.22043
C         20.75843        16.06034         1.07385
C         19.50046        16.74310         0.92091
C         20.73946        18.97645         1.04648
C         19.46090        18.19600         0.85985
C         20.72178        20.25901         0.20662
C         19.50807        21.09710         0.55946
C         20.74130        23.23003        -0.10751
C         19.47303        22.44437        -0.07992
C         20.71863        24.57567        -0.26485
C         19.43539        25.36985        -0.02623
C         20.60841        27.48199        -0.70580
C         19.45461        26.73848        -0.66848
C         20.60716        28.83185        -1.20207
C         19.37478        29.47896        -1.79889
C         20.64587        31.66386        -1.99172
C         19.39943        31.00223        -1.74741
C         20.61473        33.18277        -2.33588
C         19.38142        33.89324        -1.73224
C         20.59192        36.01584        -1.29732
C         19.39159        35.30274        -1.38751
C         20.60941        37.41127        -0.95175
C         19.36556        38.13847        -0.75166
C         20.57792        40.30879        -0.73265
C         19.35952        39.50809        -0.54761
C         20.62439        41.72415        -0.31843
C         19.42903        42.29140         0.37312
C         20.67501        44.51042         0.36483
C         19.46925        43.78319         0.48100
C         20.75001        45.89563         0.73360
C         19.55071        46.50972         1.41395
C         20.74989        48.71283         1.33587
C         19.52169        48.01207         1.38693
C         20.78407        50.10389         1.57911
C         19.54414        50.87377         1.75580
C         20.77323        52.98416         1.26863
C         19.54148        52.29352         1.36004
C         20.76709        54.39202         1.02916
C         19.52167        55.08458         0.83433
C         20.74537        57.22049         0.62006
C         19.53928        56.48230         0.60495
C         20.76635        58.61385         0.39189
C         23.16381         3.31747         0.05574
C         21.98206         4.00394         0.09676
C         23.26460         6.10333         0.47517
C         21.95472         5.41420         0.38629
C         23.28667         7.52020         0.96449
C         21.99534         8.12323         1.40044
C         23.30315        10.33073         1.46106
C         22.01842         9.61095         1.69939
C         23.23543        11.78216         1.27471
C         22.03969        12.49444         1.38991
C         23.25369        14.62586         1.10609
C         22.01084        13.92060         1.25633
C         23.25148        16.08306         1.05523
C         21.98855        16.78447         1.01419
C         23.18470        18.93198         0.76039
C         22.00079        18.19681         0.82728
C         23.18784        20.35154         0.48592
C         22.01197        21.04115         0.29454
C         23.23929        23.24748         0.23715
C         22.03378        22.44910        -0.28685
C         23.27498        24.70705        -0.00289
C         21.99570        25.33696        -0.42751
C         23.12110        27.64955         0.00004
C         21.94773        26.82419        -0.52330
C         23.01184        29.03094        -0.65803
C         21.80043        29.53312        -1.27131
C         23.11877        31.35233        -2.17191
C         21.80781        30.87082        -1.85548
C         23.16052        33.49410        -2.42254
C         21.90221        33.96630        -2.06394
C         23.13503        36.02317        -1.35979
C         21.84999        35.46107        -1.91848
C         23.09446        37.33987        -0.74721
C         21.82637        38.08293        -0.83887
C         23.22268        40.25314        -0.84124
C         21.87810        39.53288        -0.90571
C         23.00475        41.58567        -0.08802
C         21.80746        42.44041        -0.34851
C         23.14763        44.55575        -0.09736
C         21.89184        43.84266        -0.04228
C         23.18246        45.94246         0.26372
C         21.96444        46.61519         0.66905
C         23.22633        48.73594         0.93585
C         21.99184        48.00738         1.00705
C         23.26728        50.12270         1.22939
C         22.07177        50.82839         1.81563
C         23.22590        52.99527         1.36847
C         22.02129        52.29445         1.43452
C         23.22497        54.42987         1.22357
C         21.99037        55.11891         1.03580
C         23.20585        57.25872         0.93550
C         21.99064        56.53492         0.86649
C         23.20084        58.68706         0.76204
C         21.97107        59.35189         0.44927
C         23.17094        61.46614         0.30609
C         21.98787        60.75816         0.21907
C         24.42272         3.95837         0.33565
C         25.81302         5.96083         0.93750
C         24.50020         5.30242         0.55439
C         25.79084         7.47664         0.97472
C         24.55517         8.13734         1.55391
C         25.68113        10.35018         0.73086
C         24.48419         9.64304         1.32119
C         25.69753        11.81038         1.07717
C         24.48085        12.50113         1.09530
C         25.70930        14.68172         0.65063
C         24.45843        13.93050         1.05294
C         25.71901        16.07621         1.24769
C         24.43572        16.79358         1.16288
C         25.72787        19.01609         1.18989
C         24.38714        18.28121         1.39118
C         25.76331        20.27769         0.37395
C         24.46665        21.01656        -0.00497
C         25.80084        23.22290         0.24834
C         24.52918        22.49362         0.39363
C         25.74965        24.73139         0.47731
C         24.45307        25.42767         0.03786
C         25.74110        27.47628        -0.29199
C         24.48222        26.87822        -0.13658
C         25.94952        28.89941        -0.34806
C         24.03473        29.94173        -0.52486
C         25.56409        31.66278        -1.71503
C         24.22696        31.02493        -1.42638
C         25.55584        33.16784        -1.42253
C         24.38806        34.00993        -1.92246
C         25.61688        36.00391        -1.10780
C         24.35084        35.34230        -1.40030
C         25.64334        37.36891        -0.87756
C         24.41696        38.05798        -0.49000
C         25.67691        40.33343        -0.73021
C         24.45098        39.55805        -0.21499
C         25.68021        41.73607        -0.86121
C         24.54864        42.67403        -1.24088
C         25.62323        44.60494        -0.34578
C         24.39126        43.93029        -0.44010
C         25.62326        46.00342        -0.11838
C         24.41249        46.66687         0.18522
C         25.64732        48.80105         0.43673
C         24.43663        48.08379         0.50291
C         25.68313        50.17542         0.78222
C         24.47512        50.84724         1.13590
C         25.70045        52.98195         1.29857
C         24.48880        52.27808         1.33251
C         25.73522        54.46692         1.57415
C         24.43332        55.16319         1.26046
C         25.70665        57.28818         1.17346
C         24.43515        56.55927         1.13705
C         25.67715        58.78915         1.36228
C         24.39631        59.44043         0.88705
C         24.37221        60.81355         0.65415
C         26.92435         8.17494         0.73133
C         28.19169        10.27396         0.89699
C         26.99915         9.62340         0.86338
C         28.30275        11.73529         1.12138
C         26.96129        12.53096         1.24312
C         28.20116        14.63182         0.85091
C         27.00685        13.96510         0.95399
C         28.16872        16.12162         0.57858
C         27.02990        16.79965         1.34946
C         28.40277        19.02075         1.24838
C         27.04478        18.30949         1.38711
C         28.32733        20.41416         0.67328
C         27.04542        21.04052         0.27173
C         28.26663        23.20274         0.05716
C         27.00552        22.53235         0.14089
C         28.31016        24.70267         0.22950
C         27.00298        25.39896        -0.03587
C         28.21539        27.42093        -0.80027
C         26.98304        26.71151        -0.43849
C         28.21148        28.78687        -1.13499
C         26.97180        29.52507        -1.03696
C         28.17587        31.68240        -1.67743
C         26.86913        30.92046        -1.56267
C         28.15989        33.19106        -1.65873
C         26.87154        33.91538        -1.51951
C         28.10977        35.93457        -0.69970
C         26.86677        35.25618        -1.25237
C         28.17438        37.40656        -1.09137
C         26.87402        38.16265        -1.07278
C         28.14595        40.29456        -0.86573
C         26.90474        39.62223        -0.84719
C         28.15061        41.72874        -0.69039
C         26.91089        42.45382        -0.71236
C         28.09010        44.54051        -0.17819
C         26.88219        43.86719        -0.50424
C         28.11591        45.96225        -0.00418
C         26.90213        46.71493        -0.53649
C         28.17574        48.86071         0.18004
C         26.85619        48.26944        -0.32033
C         28.15742        50.23799         0.68965
C         26.92944        50.90937         0.83494
C         28.19117        53.03076         1.17493
C         26.92596        52.30597         1.11414
C         28.18428        54.42515         1.14870
C         26.89549        55.13072         0.82911
C         26.88369        56.62234         1.06851
C         29.45561        12.50318         0.69732
C         30.65440        14.63840         0.47211
C         29.46212        13.90928         0.72520
C         30.71167        16.06021         0.47185
C         29.50317        16.82051         0.67450
C         30.76368        18.91225         0.46319
C         29.54127        18.20261         0.68637
C         30.76305        20.33012         0.35251
C         29.50207        21.05873         0.36974
C         30.71632        23.12952        -0.21252
C         29.48543        22.48006         0.04886
C         30.66966        24.52255        -0.68078
C         29.47224        25.32818        -0.49170
C         30.69812        27.41182        -0.99437
C         29.46120        26.69055        -0.81552
C         30.68081        28.84147        -1.06926
C         29.44565        29.53886        -1.23817
C         30.65402        31.68712        -1.33862
C         29.44762        30.95798        -1.39083
C         30.70263        33.18564        -1.68472
C         29.42007        33.91312        -1.35952
C         30.63794        35.99160        -0.81425
C         29.41326        35.24085        -1.03129
C         30.63226        37.38512        -0.65914
C         29.41314        38.14712        -0.81597
C         30.66741        40.25738        -0.74191
C         29.38200        39.53824        -0.82682
C         30.64998        41.76045        -0.52875
C         29.34436        42.43406        -0.42357
C         30.49102        44.44648         0.43562
C         29.31277        43.80356        -0.07173
C         30.43507        45.79385         0.79353
C         29.28395        46.56492         0.44993
C         30.55958        48.67476         1.14897
C         29.40278        48.03885         0.46587
C         30.56470        50.09547         1.25016
C         29.39644        50.87608         1.04970
C         29.39443        52.27619         1.25333
C         31.93136        16.75226         0.32026
C         33.19408        18.88305         0.12949
C         31.98027        18.16971         0.29124
C         33.20503        20.28570         0.04188
C         31.96880        21.01711         0.08717
C         33.20215        23.11707        -0.33040
C         31.96274        22.43476        -0.16605
C         33.24728        24.55931        -0.49994
C         32.00189        25.26749        -0.87695
C         33.14226        27.45146        -0.72078
C         31.94972        26.73952        -0.85353
C         33.15437        28.88270        -0.79814
C         31.89289        29.58499        -0.94934
C         33.08767        31.75394        -0.77860
C         31.85886        30.99427        -1.07069
C         33.21831        33.18314        -1.28364
C         31.91774        33.91880        -1.15074
C         33.11564        35.96882        -0.45225
C         31.89136        35.25616        -0.80425
C         33.09344        37.35168        -0.16959
C         31.85805        38.10332        -0.35359
C         33.02088        40.23750         0.18524
C         31.85996        39.48831        -0.33291
C         33.15955        41.72057        -0.14334
C         31.83883        42.43512         0.02575
C         32.94865        44.40376         1.00482
C         31.74926        43.71125         0.51523
C         32.86218        45.69978         1.44244
C         31.53838        46.39385         1.63590
C         31.61573        47.89390         1.56994
C         34.42635        21.01680        -0.10513
C         35.73772        23.12904        -0.43083
C         34.43042        22.39288        -0.24361
C         35.69827        24.58027         0.08279
C         34.40610        25.27353        -0.30173
C         35.70064        27.48276        -0.48008
C         34.39088        26.74489        -0.36148
C         35.63168        28.80195        -1.24271
C         34.38104        29.55929        -0.82599
C         35.66627        31.74135        -0.70180
C         34.39534        30.99628        -0.65010
C         35.61982        33.15986        -0.52961
C         34.40537        33.87580        -0.66647
C         35.57613        35.95890        -0.09315
C         34.36063        35.25932        -0.39923
C         35.54255        37.36279         0.15048
C         34.30575        38.03347         0.15132
C         35.56367        40.22405         0.55230
C         34.28627        39.47144         0.46773
C         35.51728        41.60882         0.73144
C         34.30355        42.36062         0.61270
C         34.19469        43.66587         1.04343
C         36.92965        25.32794        -0.37159
C         38.16249        27.43156        -0.71628
C         36.95889        26.69218        -0.57746
C         38.17214        28.85637        -0.70516
C         36.96366        29.63108        -1.21194
C         38.06935        31.73533        -0.34311
C         36.87030        31.03755        -0.64058
C         38.06073        33.13436        -0.18935
C         36.83629        33.86145        -0.27089
C         38.04620        35.97767         0.16265
C         36.81408        35.26470        -0.07277
C         38.00833        37.35819         0.37695
C         36.78334        38.08352         0.38195
C         36.76816        39.47987         0.55580
C         39.32011        29.53982        -0.36029
C         40.56372        31.77189        -0.25380
C         39.31404        30.98269         0.06088
C         40.54717        33.12137        -0.19316
C         39.30242        33.86794        -0.03760
C         39.27965        35.23960         0.12856
O         22.01707         8.59559         2.78714
O         27.95546        35.87640         0.70102
O         18.84329        50.73480         3.09348
O         33.60712        31.47336         0.53846
O         21.14232        40.06217        -2.07211
O         26.48164        16.15320         2.51652
O         26.16500        31.05928        -2.87524
O         18.79000        22.47246        -1.38403
O         26.57332        20.17198        -0.84087
O         22.20209        26.03606        -1.72533
O         29.20316        48.65481        -0.86421
O         27.73898        12.13506         2.41730
O         18.12073        41.31084        -1.58287
O         13.98135        28.85371        -2.35811
O         35.06379        27.40789         0.81166
O         23.56057        41.83185         0.97325
O         28.26053        32.43629        -2.94098
O         24.34658        20.96322        -1.41274
O         23.71093        37.36269         0.60883
O         25.05412        29.68222         0.38398
O         11.15795        40.31380        -1.37691
O         27.54893        37.76431        -2.34559
O         14.92618        46.03133         2.46450
O         19.01928        21.04402         1.90442
O         23.21398        32.30788        -3.17794
O         17.50753        26.74895        -2.25882
O         16.39682        31.53105         0.10468
O         26.38893        19.01034         2.49952
O         16.24935        18.48810         2.06294
O         15.07116        20.57354        -0.92856
O         23.36631         7.27515        -0.46093
O         30.89895        41.18156        -1.88238
O         23.72389        22.85695         1.57877
O         31.30650        24.68687        -2.00530
O         33.35326        39.85686         1.55550
O         20.80702        19.33270         2.45702
H         21.72226        19.18463         2.78249
O         28.87546        19.21905         2.62559
H         28.10045        19.51236         3.15752
O         22.90733        27.81010         1.42268
H         23.60029        28.41887         1.75904
O         11.52860        29.58274        -2.68522
H         12.38509        29.48878        -3.17111
O         31.14843        46.10044         3.03883
H         31.21686        45.12930         3.16220
O         28.56368        24.91913         1.67384
H         27.68395        24.87741         2.12559
O         26.96446        46.47353        -1.96873
H         26.44769        47.19513        -2.39921
O         13.23314        33.12382        -3.06684
H         13.10223        34.05490        -3.37125
O         21.77259        35.93926        -3.32609
H         21.10805        35.37064        -3.78133
O         23.62086        40.33897        -2.21827
H         22.84968        40.64410        -2.75023
O         14.77598        25.27536         1.38852
H         13.97343        25.63910         1.84510
O         26.68201        48.88618        -1.63276
H         27.58258        48.95736        -2.02619
O         25.99053        54.64356         2.99675
H         25.22744        54.27748         3.49011
O         35.37945        28.36410        -2.60370
H         35.85951        28.97647        -3.20895
O         25.44846        10.32705        -0.73993
H         24.49427        10.49514        -0.89625
O         14.50780        22.58988         2.04384
H         14.62832        23.55576         2.22715
O         30.83421        33.20822        -3.15488
H         29.96427        32.87790        -3.50479
O         14.40160        33.61361         0.40892
H         15.09406        32.95860         0.65154
O         11.90619        35.58199        -2.83828
H         11.56412        36.49862        -3.00383
O         24.53224        39.68300         1.21024
H         24.17247        38.85789         1.61016
O         33.51822        41.80180        -1.55280
H         32.69587        41.60273        -2.06831
O         19.69659        46.14557         2.83281
H         19.20697        46.84185         3.35515
O         24.58783         7.86691         2.97379
H         23.74399         8.21707         3.35516
O         26.86713         5.48202         0.09890
H         26.65693         5.72908        -0.82499
O         10.79023        20.34755        -0.02573
H         11.01657        20.33223        -0.97824
O         17.13655        16.81648        -1.07062
H         17.20710        15.91173        -1.44150
O         22.28252        50.80957         3.28642
H         23.15390        51.22607         3.45799
O         18.19989        44.05400         2.49705
H         18.84245        44.67572         2.93924
O         10.65032        37.92738        -2.43668
H          9.73441        37.88072        -2.78211
O         15.67999        29.09141         0.89161
H         15.92687        30.03887         1.04022
O         25.60642        14.83752        -0.79496
H         25.55531        13.94521        -1.19607
O          9.89322        26.88815         2.05920
H          9.92833        27.83583         2.31417
O         18.33212        46.10582        -0.59430
H         17.60903        45.60184        -1.02403
O          9.16101        30.94280        -2.38633
H          9.91624        30.43925        -2.78714
O         26.64355        54.92003        -0.59803
H         27.42401        55.24488        -1.09331
O         18.30676        48.31080         3.42209
H         18.71603        49.10762         3.85058
O         20.77158        11.92364         3.30428
H         19.99109        11.43172         3.63789
O         36.06661        23.13236        -1.83103
H         35.28994        23.45848        -2.33100
O         37.29008        29.90164        -2.61831
H         38.12132        30.42184        -2.63816
O         33.52125        33.06928        -2.71519
H         32.66252        33.12525        -3.20612
O         11.70537        38.11836         1.04408
H         12.55611        38.36866         1.48606
O         12.19793        25.42307         1.83486
H         11.41281        25.91878         2.19751
O         15.42149        24.25709        -2.05835
H         16.21348        23.82521        -2.44518
O         20.40645        33.27317        -3.78552
H         21.13079        32.76031        -4.20946
O         14.35238        39.12738         1.66083
H         14.06252        39.96405         2.10829
O         35.74027        24.53328         1.53800
H         35.65266        25.46043         1.85524
O         13.02581        41.42369         1.86997
H         13.09318        42.29898         2.31134
O         26.81771        59.40573         0.75595
H         26.75046        59.28499        -0.21311
O         14.40989        35.47590        -2.76181
H         14.44815        36.43435        -2.96215
O         27.78530        16.31692        -0.82031
H         28.47821        15.91826        -1.38708
O         24.03401        18.41587         2.81836
H         24.86895        18.26452         3.32464
O         25.29144        33.11402         0.03609
H         25.52004        33.98742         0.42698
O         19.48001        41.75971         1.75389
H         19.02214        42.43064         2.32827
O         39.27027        30.91698         1.53759
H         39.25428        31.84070         1.86822
O          9.93695        33.83184         1.27319
H          9.41623        34.52973         1.72510
O         20.59495        19.89013        -1.18683
H         20.91790        20.64990        -1.73192
O         12.81023        24.62531        -1.68509
H         13.61180        24.35268        -2.19371
O         25.77667        24.84040         1.95180
H         25.02274        24.28846         2.27726
O         19.42920        25.63843         1.41775
H         19.36447        24.78371         1.89460
O         24.00846        42.65061        -2.34327
O         12.96566        35.56699         0.66388
H         13.75720        35.85173         1.16650
O         22.15203        22.28206        -1.71971
H         23.01851        21.77219        -1.87431
O         19.37595        29.14734        -3.22505
H         19.14599        28.19621        -3.31299
O         12.20754        30.75862         0.72204
H         12.24999        31.65096         1.13112
H          4.88876        31.26170         0.35004
H          4.94710        33.73516         0.48591
H          7.37628        27.08929         0.70750
H          6.12073        29.13745         0.30694
H          6.20828        35.82686         0.44569
H          7.36017        37.93736         0.31237
H          9.76874        22.65286         0.06005
H          8.54868        24.92191         0.00286
H          8.35838        39.94276         0.46304
H          9.79737        42.30976         0.94010
H         12.24669        18.28317         0.58894
H         11.56912        20.97182         1.76667
H         11.04779        44.46584         0.25453
H         12.27974        46.48127         0.58872
H         14.85874        14.03014         0.94768
H         13.56048        16.11532         0.53647
H         13.66134        48.66796         0.81896
H         14.88740        50.69016         1.07200
H         17.38779         9.80815         1.11836
H         16.12653        11.92571         1.02657
H         16.14172        52.77348         0.94784
H         17.35813        54.88036         0.72576
H         19.81838         5.59735         0.38045
H         18.60922         7.74730         0.77598
H         18.58927        57.00965         0.43245
H         19.82430        59.13877         0.17344
H         23.16291         2.23862        -0.15333
H         21.02834         3.48244        -0.06978
H         23.17891        62.54986         0.12364
H         21.04740        61.27124        -0.02797
H         25.33411         3.34527         0.37850
H         26.05949         5.61550         1.98222
H         25.76372        58.99267         2.46803
H         25.30341        61.38996         0.74793
H         27.83684         7.62863         0.44246
H         29.12636         9.69182         0.85741
H         29.13403        54.98212         1.16957
H         27.82942        57.18728         1.05359
H         30.33552        11.96888         0.30839
H         31.58890        14.07686         0.32223
H         31.47161        50.59416         1.62336
H         30.34679        52.79680         1.43101
H         32.86422        16.17989         0.20645
H         34.14189        18.32933         0.05721
H         33.76548        46.20676         1.81602
H         32.49090        48.37747         2.03126
H         35.37928        20.46717        -0.09445
H         36.56003        22.58523         0.09487
H         36.44352        42.14405         0.99353
H         35.06204        44.15230         1.51678
H         37.87506        24.76525        -0.39986
H         39.11956        26.90155        -0.59080
H         38.94774        37.90505         0.54917
H         37.72382        40.01311         0.67333
H         40.20725        28.95354        -0.07012
H         41.51387        31.23144        -0.37962
H         41.47939        33.69570        -0.30802
H         40.22689        35.79183         0.22557
