         630
 CSIRO Nanostructure Databank - Neutral Graphene Oxide Data Set
C         24.17333        27.91548         4.46165
C         24.06881        29.24171         4.10299
C         23.88076        32.07149         3.37942
C         23.78794        33.40431         3.03199
C         23.50997        36.15637         2.14922
C         23.39528        37.49190         1.80199
C         23.06358        40.30896         0.84270
C         22.97350        41.63392         0.52297
C         22.99856        44.60401         0.68186
C         22.98709        45.95099         0.70904
C         26.60038        25.08711         4.21985
C         25.46001        25.80139         4.51927
C         26.39574        27.79308         3.42529
C         25.33624        27.16609         4.13878
C         26.28109        29.16808         3.05428
C         25.11361        29.90237         3.40039
C         26.07901        31.93069         2.32951
C         25.01705        31.29976         3.03631
C         25.99115        33.31645         1.98900
C         24.82926        34.05650         2.33052
C         25.83566        36.13122         1.39079
C         24.72441        35.45635         1.96114
C         25.73129        37.53012         1.07476
C         24.49260        38.19932         1.28535
C         25.57057        40.36331         0.46782
C         24.37403        39.65290         1.02991
C         25.33030        41.65856        -0.29169
C         24.13232        42.42342         0.21075
C         25.40198        44.52810         0.08131
C         24.18036        43.82592         0.29666
C         25.45790        45.91775         0.65594
C         24.21675        46.75200         0.34645
C         25.52726        48.59830         1.38910
C         24.32581        48.06354         1.09581
C         29.06172        23.59300         3.62969
C         28.88769        24.93405         3.22087
C         27.68222        25.67841         3.51425
C         28.62032        27.66519         2.36412
C         27.57195        27.04151         3.09737
C         28.50162        29.04340         1.97402
C         27.34630        29.80169         2.33154
C         28.29308        31.79971         1.22626
C         27.24599        31.17597         1.96271
C         28.21266        33.20906         0.89740
C         27.07741        33.96898         1.30653
C         28.13628        36.01858         0.45017
C         27.03099        35.37628         1.06444
C         28.19780        37.53409         0.43632
C         26.85717        38.22953         0.51240
C         27.85604        40.25049        -0.53338
C         26.78011        39.57663         0.12091
C         27.77539        41.70115        -0.81169
C         26.59383        42.46171        -0.37165
C         27.85255        44.61453        -0.57579
C         26.60085        43.84352        -0.29060
C         27.91776        46.08663        -0.16844
C         26.72922        46.70146         0.43919
C         28.07225        48.63996         1.11381
C         26.78465        47.96808         0.96292
C         28.14010        49.85910         1.80316
C         31.26725        23.46255         2.59578
C         30.21169        22.87532         3.30987
C         31.15376        24.84764         2.23027
C         29.94959        25.56758         2.50747
C         30.87376        27.53032         1.35114
C         29.81643        26.92320         2.06090
C         30.69585        28.87742         0.69055
C         29.52896        29.67420         1.22353
C         30.49882        31.61822         0.02644
C         29.42348        31.02029         0.85497
C         30.39522        33.08627        -0.35767
C         29.24892        33.85953         0.17833
C         30.29363        35.86830        -0.91452
C         29.22078        35.25184        -0.02523
C         30.34936        37.35592        -0.77678
C         29.02018        38.04992        -0.75662
C         30.27453        40.23104        -0.98856
C         29.08087        39.56151        -0.76784
C         30.32796        41.68923        -1.16769
C         29.06390        42.47656        -1.04993
C         30.36141        44.58198        -0.55635
C         29.13785        43.90452        -0.69172
C         30.41868        45.98845        -0.17294
C         29.23402        46.69463         0.09290
C         30.56206        48.60091         0.93532
C         29.28596        47.98972         0.69851
C         30.54156        49.72076         1.80026
C         29.37431        50.36934         2.19724
C         33.53006        20.48519         1.85127
C         32.45137        21.23322         2.23239
C         33.47211        23.32190         1.51056
C         32.41480        22.68524         2.11797
C         33.57990        24.83579         1.54821
C         32.23465        25.51583         1.59209
C         33.20785        27.53313         0.48252
C         32.09761        26.84648         1.15434
C         33.15885        28.89420         0.22054
C         31.99335        29.69330         0.75085
C         32.93755        31.67876        -0.49381
C         31.83291        31.01387         0.04660
C         32.84827        33.05608        -0.86231
C         31.65599        33.79112        -0.68843
C         32.86071        35.92588        -1.03735
C         31.63797        35.18790        -0.84129
C         32.85346        37.34680        -1.07467
C         31.54419        38.05977        -1.33292
C         32.86390        40.23204        -0.79609
C         31.54792        39.49574        -0.86378
C         32.88392        41.69466        -0.86180
C         31.62555        42.43576        -1.03576
C         32.82999        44.55313        -0.72419
C         31.60976        43.88068        -0.73256
C         32.86720        45.98176        -0.50582
C         31.68931        46.67165        -0.08203
C         33.02009        48.75051         0.16446
C         31.78308        48.02792         0.37029
C         33.19730        50.17556         0.46383
C         32.44739        50.88215         1.41873
C         33.32013        53.03006         0.74906
C         32.45989        52.28470         1.53358
C         35.91776        18.91847         0.96867
C         35.81429        20.35171         0.83659
C         34.69040        21.07132         1.22313
C         35.77183        23.25405         0.50955
C         34.49437        22.49905         0.75892
C         35.57218        24.64119         0.03221
C         34.48781        25.42388         0.49811
C         35.42976        27.43469        -0.61095
C         34.36664        26.76955         0.09324
C         35.42332        28.82549        -0.79234
C         34.25644        29.58209        -0.40427
C         35.36614        31.67289        -1.13543
C         34.19670        30.96369        -0.66141
C         35.32459        33.03505        -1.37608
C         34.01156        33.75144        -1.51763
C         35.32466        35.92391        -1.29829
C         34.08866        35.22487        -1.18747
C         35.32501        37.35870        -1.21171
C         34.08137        38.06439        -1.10938
C         35.31333        40.21285        -1.18418
C         34.10623        39.49337        -1.06183
C         35.31516        41.65230        -1.16454
C         34.07988        42.38013        -0.98824
C         35.21359        44.52813        -1.33684
C         34.06612        43.83417        -0.98628
C         35.16980        45.99469        -1.42663
C         34.04498        46.70580        -0.78030
C         35.33765        48.81853        -0.79764
C         34.10543        48.09975        -0.50780
C         35.38000        50.24235        -0.66587
C         34.26007        50.93551        -0.13381
C         35.40786        53.09173        -0.58934
C         34.30615        52.36665        -0.02746
C         35.41735        54.53666        -0.67105
C         38.02268        18.84157        -0.34077
C         36.98119        18.22377         0.46703
C         37.97311        20.20725        -0.53451
C         37.13911        21.00985         0.45201
C         37.85557        23.09385        -0.92259
C         37.02690        22.49988         0.15036
C         37.43943        24.28832        -1.44136
C         36.52232        25.18598        -0.81581
C         37.88065        27.34363        -1.42352
C         36.65352        26.65283        -0.90198
C         37.77698        28.79766        -1.74278
C         36.57630        29.53978        -1.30159
C         37.83886        31.66966        -1.57320
C         36.59382        30.92565        -1.37405
C         37.82112        33.05090        -1.60360
C         36.53795        33.77733        -1.88368
C         37.78628        35.94754        -1.53232
C         36.55790        35.23581        -1.48817
C         37.77974        37.37775        -1.49462
C         36.54543        38.08073        -1.34405
C         37.76868        40.23341        -1.49883
C         36.54547        39.50966        -1.35665
C         37.74677        41.66426        -1.56223
C         36.50526        42.34872        -1.44888
C         37.78340        44.57016        -1.82685
C         36.42244        43.79153        -1.72717
C         37.77173        46.00247        -1.55145
C         36.51222        46.74532        -1.57456
C         37.77429        48.83214        -1.19203
C         36.52367        48.15131        -1.15618
C         37.79272        50.25555        -1.14574
C         36.57672        50.95819        -0.94895
C         37.78876        53.08646        -1.27166
C         36.57733        52.38966        -0.97448
C         37.75188        54.55973        -1.60549
C         36.48914        55.22604        -1.12235
C         40.30537        15.90922        -0.97964
C         39.16104        16.63445        -0.69467
C         40.28034        18.67429        -1.42398
C         39.13411        18.03588        -0.86347
C         40.17280        20.10039        -1.83041
C         38.92696        20.85927        -1.46702
C         40.22273        23.07016        -1.96759
C         38.92821        22.34950        -1.66041
C         40.29752        24.48872        -2.00465
C         39.18003        25.32015        -2.21545
C         40.36659        27.38553        -1.79152
C         39.12219        26.67077        -1.90050
C         40.36958        28.79511        -1.77446
C         39.09557        29.53314        -1.87183
C         40.34019        31.65179        -1.63005
C         39.11312        30.97573        -1.62024
C         40.35569        33.09189        -1.64195
C         39.07901        33.81038        -1.28054
C         40.23228        35.96899        -1.86216
C         39.04096        35.26612        -1.64900
C         40.21047        37.38495        -1.87553
C         39.00438        38.09415        -1.63379
C         40.23644        40.25768        -1.64055
C         39.00202        39.53136        -1.60986
C         40.22761        41.67996        -1.54982
C         38.98980        42.39161        -1.60006
C         40.21854        44.50555        -1.29844
C         39.01022        43.80838        -1.58334
C         40.21601        45.94984        -1.22823
C         38.98541        46.67122        -1.30648
C         40.23448        48.81794        -1.27168
C         38.99892        48.11411        -1.26120
C         40.24865        50.24826        -1.30915
C         39.02336        50.96102        -1.25985
C         40.26684        53.09988        -1.38670
C         39.00654        52.39322        -1.32135
C         40.23997        54.55136        -1.20567
C         39.03112        55.25951        -1.18664
C         40.18148        57.28037        -0.46079
C         39.02357        56.63302        -0.83918
C         42.70686        15.82854        -1.51853
C         41.48525        16.56214        -1.40345
C         42.70424        18.59371        -2.32058
C         41.47057        17.96448        -1.65321
C         42.70954        20.12287        -2.18761
C         41.42184        20.86931        -2.14588
C         42.67416        23.07772        -2.31813
C         41.44827        22.35936        -2.09434
C         42.78717        24.46118        -2.07689
C         41.56421        25.16909        -1.56843
C         42.81023        27.34324        -1.83100
C         41.58150        26.65638        -1.80364
C         42.81871        28.77174        -1.78801
C         41.59252        29.49863        -1.75105
C         42.81330        31.64171        -1.81163
C         41.59613        30.93988        -1.74449
C         42.80149        33.09036        -1.88752
C         41.53032        33.77940        -1.85272
C         42.79174        35.94550        -1.98474
C         41.49546        35.22565        -2.28031
C         42.78357        37.40142        -2.12573
C         41.45148        38.14683        -2.11034
C         42.71217        40.26870        -1.69402
C         41.47726        39.57809        -1.77890
C         42.70822        41.67548        -1.43881
C         41.46269        42.38629        -1.38783
C         42.63055        44.48543        -0.59499
C         41.42424        43.78470        -1.15439
C         42.66781        45.96635        -0.91039
C         41.44592        46.66396        -1.12817
C         42.69804        48.80422        -1.17008
C         41.46261        48.09319        -1.20927
C         42.70071        50.22373        -1.32745
C         41.49581        50.95855        -1.38973
C         42.73957        53.21332        -1.67339
C         41.47113        52.40415        -1.43344
C         42.70987        54.54880        -0.96219
C         41.46108        55.22717        -0.88249
C         42.62921        57.23366        -0.09057
C         41.42122        56.59041        -0.46943
C         43.91312        16.50034        -1.62159
C         45.25244        18.53807        -1.56867
C         43.99293        17.88969        -1.84764
C         45.58512        19.80961        -2.11095
C         43.74981        20.84326        -2.66752
C         45.26164        22.92973        -2.42313
C         43.89341        22.30708        -2.65962
C         45.28430        24.45047        -2.31732
C         44.01441        25.18529        -2.11533
C         45.28346        27.32910        -1.82111
C         44.04587        26.59378        -1.92206
C         45.28046        28.76646        -1.74793
C         44.05575        29.49079        -1.77659
C         45.30241        31.61309        -1.87854
C         44.06194        30.91695        -1.81098
C         45.26303        33.07254        -2.15994
C         43.99588        33.81193        -1.97373
C         45.25813        36.01487        -1.93525
C         44.00769        35.26565        -1.96509
C         45.25533        37.40500        -1.79769
C         44.01109        38.15635        -1.83492
C         45.25004        40.31518        -1.88303
C         43.96371        39.53969        -1.74650
C         45.19198        41.71776        -1.32722
C         43.95003        42.39071        -1.23967
C         45.11841        44.47510        -0.70166
C         43.92973        43.77923        -0.90638
C         45.06384        45.92008        -0.24720
C         43.86272        46.67297        -0.76223
C         45.16267        48.79630        -0.76643
C         43.91509        48.08494        -0.92400
C         45.21285        50.19713        -0.90510
C         44.00583        50.91787        -1.36707
C         45.22445        53.11117        -0.89639
C         44.03358        52.42390        -1.44824
C         45.17177        54.48936        -0.60609
C         43.88935        55.20317        -0.59387
C         43.82169        56.55051        -0.13060
C         47.25853        18.79510        -0.21630
C         46.17965        18.02801        -0.61831
C         47.43508        20.14737        -0.62530
C         46.51469        20.69625        -1.56937
C         47.59389        22.99917        -1.24153
C         46.40649        22.19824        -1.72198
C         47.74351        24.45143        -1.52350
C         46.56603        25.19263        -2.00235
C         47.73492        27.33877        -1.57163
C         46.50909        26.64197        -1.73851
C         47.72870        28.75612        -1.62734
C         46.51453        29.48113        -1.70391
C         47.80307        31.62724        -1.83597
C         46.52973        30.92134        -1.81464
C         47.84003        33.07705        -2.14395
C         46.54472        33.82738        -2.31414
C         47.78760        35.97752        -1.63858
C         46.58221        35.36268        -2.33612
C         47.73518        37.37847        -1.39945
C         46.49912        38.13323        -1.58688
C         47.65965        40.27185        -1.17635
C         46.47331        39.52902        -1.46102
C         47.65036        41.66661        -0.96910
C         46.39341        42.39113        -1.02036
C         47.57406        44.48798        -0.41096
C         46.36117        43.78481        -0.71813
C         47.56130        45.92128        -0.29497
C         46.36276        46.65672        -0.42414
C         47.63071        48.77081        -0.45877
C         46.38220        48.06426        -0.52810
C         47.64910        50.21447        -0.51745
C         46.42765        50.92263        -0.73383
C         47.61240        53.06642        -0.32146
C         46.42259        52.36887        -0.68682
C         47.56163        54.46917        -0.15825
C         46.36941        55.15678        -0.26383
C         49.48467        20.43640         0.72978
C         48.56814        20.92468        -0.18055
C         49.91439        23.08062        -0.23767
C         48.86108        22.22290        -0.91160
C         49.97803        24.45737        -0.47746
C         48.86893        25.15101        -1.11305
C         50.13086        27.27694        -0.97964
C         48.93783        26.59568        -1.26964
C         50.25866        28.70170        -1.32733
C         49.00043        29.48040        -1.69106
C         50.27293        31.63961        -1.40818
C         49.00456        30.95555        -1.62367
C         50.30231        33.04912        -1.43086
C         49.12428        33.83715        -1.87084
C         50.17026        35.98130        -1.06363
C         49.02010        35.29299        -1.52698
C         50.14336        37.38187        -0.85037
C         48.92616        38.07130        -1.07914
C         50.19396        40.27316        -0.72401
C         48.93013        39.53695        -1.15911
C         50.06040        41.67873        -0.33339
C         48.84454        42.36495        -0.55188
C         49.98131        44.47609         0.10263
C         48.79100        43.77827        -0.29165
C         49.98390        45.89326         0.18894
C         48.78910        46.62506        -0.10729
C         50.11763        48.70918        -0.12536
C         48.81060        48.03565        -0.20644
C         50.14532        50.23675        -0.18106
C         48.85559        50.93918        -0.28952
C         50.05542        53.01196         0.23315
C         48.84743        52.34091        -0.12923
C         50.66068        21.15370         1.06159
C         52.08314        23.19232         1.10137
C         50.88625        22.43476         0.58499
C         52.25187        24.55282         0.47801
C         51.15894        25.21150        -0.10070
C         52.46903        27.32577        -0.16915
C         51.25614        26.60655        -0.41833
C         52.55000        28.73048        -0.39972
C         51.43932        29.46690        -0.88141
C         52.73492        31.57598        -0.80057
C         51.45121        30.87335        -1.04750
C         52.79389        33.07586        -0.85730
C         51.54925        33.80382        -1.25827
C         52.60731        35.95062        -0.30502
C         51.48601        35.30278        -1.01762
C         52.53145        37.34196        -0.05453
C         51.34147        38.08440        -0.40228
C         52.44077        40.17873         0.32987
C         51.32955        39.47910        -0.22618
C         52.39960        41.59907         0.50385
C         51.20461        42.33340         0.20710
C         52.33911        44.43054         0.84351
C         51.17158        43.74384         0.38781
C         52.28449        45.84185         1.03341
C         51.15544        46.58649         0.64202
C         52.34067        48.75598         0.97505
C         51.21918        48.02449         0.56577
C         52.44726        50.17910         0.79972
C         51.31435        50.92893         0.38379
C         51.22546        52.33492         0.51592
C         54.55320        23.01336         1.05660
C         53.35652        22.38966         1.02356
C         54.65876        24.46006         1.01679
C         53.50632        25.21339         0.62081
C         54.83814        27.27719         0.62308
C         53.61157        26.60445         0.32725
C         54.94030        28.68438         0.45242
C         53.90621        29.39923        -0.36684
C         54.90034        31.56974         0.43042
C         53.83362        30.87770        -0.09443
C         54.90853        33.03762         0.47272
C         53.83810        33.78119        -0.08912
C         54.87203        35.87089         0.68586
C         53.75985        35.19413         0.09149
C         54.85424        37.29722         0.81508
C         53.67274        38.03678         0.46407
C         54.79922        40.17150         1.04223
C         53.63390        39.45391         0.63965
C         54.77477        41.56490         1.26750
C         53.55384        42.30137         0.98018
C         54.81873        44.42534         1.42453
C         53.52328        43.70109         1.12498
C         54.65257        45.84559         1.91088
C         53.38445        46.51672         1.72720
C         54.69294        48.73306         1.96397
C         53.40547        48.08113         1.73255
C         54.76982        50.12041         1.64162
C         53.68748        50.81302         1.14655
C         57.04571        24.42200         1.74410
C         55.88013        25.12410         1.28895
C         57.13549        27.24078         1.51218
C         55.94320        26.54688         1.15344
C         57.18434        28.66336         1.43694
C         56.06003        29.38684         0.91043
C         57.16184        31.50426         1.45471
C         56.06631        30.83570         0.93081
C         57.04914        32.95993         1.82969
C         55.98816        33.71915         1.07478
C         57.18464        35.83293         1.60216
C         56.01596        35.13451         1.11166
C         57.18296        37.25867         1.66490
C         56.01942        37.96955         1.25396
C         57.25555        40.17169         1.83315
C         56.05371        39.43366         1.18455
C         57.03827        41.55417         2.27505
C         55.87852        42.22801         1.89572
C         56.92200        44.36021         2.79821
C         55.65329        43.62903         2.42046
C         56.92652        45.77362         2.83205
C         55.74487        46.52924         2.43813
C         56.97087        48.61335         2.95556
C         55.77192        47.97710         2.49046
C         58.19718        25.08864         2.06815
C         59.43965        27.21678         2.34342
C         58.27068        26.51354         1.97654
C         59.47976        28.59913         2.27922
C         58.36152        29.34762         1.83711
C         59.51537        31.52632         2.12592
C         58.36425        30.79722         1.82424
C         59.52811        32.93763         2.09715
C         58.37593        33.67469         1.89731
C         59.50679        35.82953         2.38437
C         58.36337        35.11618         1.95440
C         59.47278        37.20147         2.54722
C         58.32081        37.94565         2.21767
C         59.12562        39.98844         3.40504
C         58.27216        39.35793         2.50018
C         59.06074        41.37579         3.63389
C         58.05555        42.17529         3.08186
C         59.18663        44.33433         3.69723
C         58.04634        43.63008         3.22944
C         59.19854        45.71600         3.73846
C         58.07465        46.46134         3.30654
C         58.06555        47.89445         3.35630
O         50.48780        49.41250        -1.35640
O         31.72714        50.17741         2.38800
O         44.85580        20.20174        -3.22739
O         37.99209        24.72436        -2.64981
O         38.32256        21.47142        -2.66951
O         46.13934        24.94498        -3.40189
O         27.68435        45.67847        -1.56738
O         32.17223        39.70775         0.43763
O         25.30339        40.45121         1.89312
O         48.73948        33.45503        -3.23677
O         45.85188        33.34191        -3.51579
O         40.55157        20.31894        -3.23381
O         46.46412        22.75567        -0.33813
O         35.60970        46.52346        -2.71378
O         37.01647        44.16086        -3.00102
O         38.26931        29.15713        -3.06062
O         44.80128        22.66104        -3.77033
O         52.92840        47.30491         2.87240
O         57.16430        39.96601         0.39226
O         37.75601        27.12771         0.03517
O         49.91108        28.97030        -2.72819
O         44.31867        51.61939        -2.64656
O         28.17367        42.13775        -2.16697
O         53.28775        32.27484        -1.99245
O         51.83422        34.75444        -2.34259
O         49.90243        40.03927        -2.14371
O         42.11891        37.83283        -3.39449
O         36.89343        23.21212         1.44555
O         30.03816        32.04013        -1.30915
O         31.06354        42.09961        -2.38132
O         49.41540        21.84772        -2.21483
H         50.26398        21.38222        -2.05985
O         42.55528        18.30141        -3.73761
H         41.79386        18.84526        -4.05024
O         44.85505        45.85337         1.22613
H         45.64786        45.42022         1.61047
O         42.71012        53.56529        -3.08915
H         43.13208        52.81435        -3.56915
O         34.23150        25.14841         2.83618
H         33.64875        24.80851         3.54824
O         54.39857        29.30109        -1.75550
H         53.90841        29.96097        -2.29465
O         45.41173        40.51169        -3.33618
H         45.47668        39.62424        -3.75084
O         30.45201        28.62814        -0.72266
H         29.56945        28.21328        -0.81533
O         33.93248        22.37104        -0.60266
H         33.08516        21.88216        -0.52609
O         29.86558        35.61963        -2.31117
H         29.00452        36.10257        -2.41590
O         32.24692        29.97282         2.16175
H         33.14699        30.35286         2.23946
O         51.82604        23.42791         2.53337
H         52.60231        23.91071         2.88913
O         36.41587        33.80427        -3.37409
H         36.61461        32.89878        -3.69946
O         42.48150        44.40143         0.86946
H         43.23720        44.91572         1.25523
O         25.39884        45.69725         2.11017
H         26.09608        45.05248         2.35203
O         33.71517        33.72732        -2.96790
H         34.56087        33.96177        -3.42903
O         39.09854        33.83155         0.20993
H         39.12595        32.89787         0.51177
O         28.25244        37.68808        -1.95967
H         28.59281        38.23952        -2.69795
O         31.36585        38.09642        -2.79473
H         31.16806        37.17123        -3.07519
O         41.42142        35.17955        -3.74699
H         41.58822        36.10307        -4.06137
O         54.85514        43.50615         3.63396
H         55.41699        43.09863         4.32555
O         25.03281        41.23155        -1.66736
H         25.17438        41.99979        -2.26084
O         41.60203        25.00476        -0.08622
H         42.38057        25.50485         0.24027
O         56.56112        32.94519         3.23369
H         57.24507        32.48481         3.76600
O         37.71500        54.64806        -3.07362
H         36.94029        54.13118        -3.38020
O         37.93835        20.90670         1.68009
H         37.68052        21.67914         2.23828
O         28.94556        37.93417         1.62156
H         28.40452        37.71893         2.40996
O         55.58019        44.46895         0.18354
H         55.01449        44.85849        -0.51494
O         46.75899        35.74873        -3.72860
H         46.39496        35.01495        -4.27743
O         24.18112        47.03273        -1.07241
H         23.39684        47.58845        -1.25810
H         23.35497        27.42448         5.00757
H         23.15540        29.78754         4.37278
H         23.04855        31.61780         3.93258
H         22.88708        33.95631         3.32858
H         22.63183        35.64781         2.56570
H         22.43953        38.00597         1.96985
H         22.14415        39.73565         1.02576
H         21.97996        42.10698         0.51858
H         22.07611        44.05610         0.92270
H         22.05762        46.49072         0.95123
H         26.66246        24.03826         4.53876
H         24.63519        25.32187         5.06563
H         25.56163        49.56738         1.90596
H         23.40155        48.60255         1.35798
H         28.27277        23.08004         4.19497
H         27.22864        50.38019         2.11910
H         30.27822        21.82688         3.63062
H         29.43898        51.25125         2.84685
H         33.51941        19.40553         2.05867
H         31.60028        20.71998         2.70046
H         33.32172        54.12400         0.83785
H         31.79758        52.76836         2.26316
H         35.10474        18.35963         1.45447
H         34.50818        55.09054        -0.39610
H         37.00026        17.13560         0.61372
H         36.39913        56.31446        -1.24767
H         40.31814        14.81944        -0.83524
H         38.27422        16.09976        -0.33117
H         40.15558        58.33872        -0.16431
H         38.08161        57.19681        -0.84634
H         42.69080        14.73847        -1.37736
H         42.60079        58.28247         0.23794
H         44.84481        15.92601        -1.51033
H         44.73472        57.07191         0.18341
H         47.96369        18.35430         0.50053
H         46.02969        17.03453        -0.17338
H         48.46912        55.03474         0.08661
H         46.37585        56.24083        -0.09718
H         49.31948        19.47088         1.22679
H         50.05573        54.10286         0.35032
H         51.36783        20.70409         1.77159
H         52.09370        52.90732         0.87003
H         55.47398        22.41343         1.07659
H         53.30330        21.29122         1.03847
H         55.70851        50.66458         1.81572
H         53.80118        51.88871         0.95533
H         57.01496        23.32907         1.84699
H         57.00214        49.71009         3.01709
H         59.07870        24.53332         2.42006
H         60.31768        26.65629         2.69518
H         60.39946        29.11336         2.58835
H         60.45923        31.00991         2.34224
H         60.49524        33.43927         2.23667
H         60.42792        35.29237         2.64414
H         60.36644        37.71786         2.92246
H         59.89217        39.40743         3.93628
H         59.81230        41.82438         4.29752
H         60.08002        43.78066         4.01655
H         60.08875        46.24867         4.10294
H         58.96023        48.41459         3.72849
