         300
 CSIRO Nanostructure Databank - Neutral Graphene Oxide Data Set
C         30.40360        31.89532         0.34991
C         30.40069        33.09864         0.64379
C         30.31400        36.30874         1.05458
C         30.44379        37.54841         1.02710
C         30.34873        40.62044         0.35736
C         30.43984        41.87987         0.27128
C         32.77247        29.00833         0.38341
C         31.74106        29.62949         0.11469
C         32.71502        31.66405         1.02441
C         31.62829        31.11226        -0.03306
C         32.71070        33.15197         1.36754
C         31.40375        33.93571         1.30399
C         32.76140        36.15752         0.92149
C         31.46088        35.42831         1.28667
C         32.74319        37.61535         0.62060
C         31.58203        38.35809         0.70386
C         32.69851        40.42412        -0.15160
C         31.61105        39.85504         0.77466
C         32.76681        41.91321        -0.34103
C         31.54217        42.68428        -0.06250
C         32.88312        44.63603        -0.33425
C         31.78840        44.07967        -0.12946
C         35.43614        27.23626         0.78879
C         35.23522        28.58864         1.32476
C         33.99313        29.36376         1.11266
C         35.30286        31.61521         1.63948
C         33.95632        30.87585         1.34262
C         35.25091        33.03194         1.00631
C         34.05334        33.83296         1.48329
C         35.28637        35.99866         0.37910
C         33.91470        35.33695         0.30661
C         35.28274        37.45959         0.14594
C         34.08751        38.32529         0.55971
C         35.20502        40.34188        -0.56234
C         33.97711        39.62599        -0.23396
C         35.06815        41.66428        -1.31055
C         33.97016        42.51203        -0.66527
C         35.08426        44.62485        -1.66517
C         34.23992        44.02783        -0.49741
C         35.42943        46.02576        -1.31425
C         37.86687        27.18879         0.62529
C         36.54025        26.67952         0.74618
C         37.91203        28.58974         1.22091
C         36.59227        29.34521         1.63772
C         37.85116        31.57864         1.21733
C         36.52877        30.77524         1.02158
C         37.81104        33.07595         0.97002
C         36.49701        33.77427         0.61194
C         37.77064        36.02754         0.42596
C         36.44707        35.27049         0.44256
C         37.66754        37.29380        -0.44652
C         36.40035        38.07818        -0.34711
C         37.66678        40.17930        -1.22607
C         36.38935        39.49980        -0.79729
C         37.66954        41.68353        -1.03355
C         36.42500        42.41426        -1.43890
C         37.79757        44.75833        -1.42086
C         36.50099        43.89879        -1.63629
C         37.63730        45.83008        -0.28832
C         36.34396        46.52020        -0.65863
C         40.04844        24.40248        -0.39168
C         39.08983        25.20417        -0.29479
C         40.15609        27.37643        -0.43339
C         38.89712        26.57725        -0.01374
C         40.47470        28.49196         0.60591
C         39.22722        29.32109         1.10356
C         40.19634        31.51525         0.13873
C         39.27914        30.87542         1.22813
C         40.29815        33.01797         0.29751
C         39.13444        33.85505         0.79801
C         40.24244        35.90319        -0.15816
C         38.93008        35.11051        -0.10036
C         40.25368        37.36889        -0.43526
C         38.94329        37.98950        -0.83011
C         40.22827        40.22225        -0.93013
C         39.00465        39.41692        -1.36100
C         40.14744        41.54073        -1.26469
C         38.97748        42.41786        -1.04410
C         40.36843        44.63882        -0.67395
C         39.11472        43.92677        -1.20124
C         40.26462        46.06087        -0.18155
C         38.88204        46.70573        -0.14082
C         40.12762        48.74299        -0.60152
C         39.06038        48.10666        -0.54033
C         42.71258        24.39784        -0.24016
C         41.36888        24.95689         0.12817
C         42.72801        27.13670        -0.64836
C         41.42358        26.42606        -0.48949
C         42.67674        28.66662        -0.84692
C         41.65144        29.34169         0.11281
C         42.74508        31.55392        -0.55761
C         41.57751        30.82792         0.07405
C         42.82389        33.01411        -0.25934
C         41.53897        33.73771         0.04122
C         42.76592        35.92742        -0.32208
C         41.48491        35.14536        -0.60692
C         42.76563        37.33001        -0.28141
C         41.56351        38.05843        -0.75091
C         42.87179        40.32380        -0.53580
C         41.58647        39.56060        -0.93524
C         42.84342        41.75335         0.05688
C         41.90453        42.69664        -0.63036
C         42.73746        44.69173         0.44396
C         41.60624        43.94304        -0.18909
C         42.74544        46.20873         0.33932
C         41.51948        46.87807        -0.23278
C         42.77692        48.85423        -0.46243
C         41.47412        48.24218        -0.52337
C         43.76994        25.03165        -0.27382
C         45.17390        27.10178        -1.05057
C         44.07127        26.49532        -0.18895
C         45.21218        28.64544        -0.74813
C         44.04313        29.33221        -0.75674
C         45.31456        31.57967        -0.79740
C         44.01414        30.81707        -0.88642
C         45.29883        33.06699        -0.71177
C         43.97066        33.81047        -0.90699
C         45.22399        35.82206         0.12509
C         43.97311        35.21089        -0.31459
C         45.21754        37.27684         0.50608
C         43.96835        38.06251         0.16027
C         45.17280        40.25604         0.76745
C         44.07706        39.54791        -0.06561
C         45.45704        41.69702         0.27260
C         44.17585        42.49233         0.06907
C         45.27502        44.67048         0.95458
C         44.07922        43.97069         0.34595
C         45.35091        46.23251         0.12180
C         44.13123        47.04483         0.54593
C         43.86093        48.29203        -0.24997
C         47.65661        27.25392        -0.66752
C         46.57420        26.66701        -0.74629
C         47.75373        28.67366        -0.18621
C         46.53737        29.36346        -0.84010
C         47.95894        31.62161        -1.10113
C         46.59708        30.84695        -1.09116
C         47.89393        33.12762        -0.83030
C         46.57068        33.88527        -1.10246
C         47.85223        35.87364         0.04828
C         46.54783        35.13686        -0.16013
C         47.83253        37.27647         0.61165
C         46.53236        38.02772         0.49872
C         47.76635        40.26794         1.01143
C         46.52376        39.52556         0.60224
C         47.77873        41.61811         1.22653
C         46.46849        42.41353         1.23411
C         47.71748        44.66341         1.52667
C         46.62479        43.91075         0.74750
C         47.69507        46.07181         1.07460
C         46.68363        46.62941         0.62162
C         50.32883        29.02356        -0.18010
C         49.03550        29.43414        -0.35249
C         50.32635        31.69222        -0.10277
C         48.95877        30.98171        -0.10795
C         50.39310        33.09182        -0.76661
C         49.05585        33.82848        -0.69703
C         50.33149        36.14460        -0.52893
C         49.01673        35.36377        -0.81176
C         50.32246        37.45119         0.24469
C         49.05415        38.07691         0.66387
C         50.26313        40.12257         1.64859
C         48.99327        39.43186         1.23160
C         50.26728        41.65850         1.45042
C         48.93516        42.24980         2.00455
C         50.26366        44.34305         2.12434
C         48.90899        43.86991         2.01099
C         51.52413        29.48359        -0.22860
C         52.78927        31.81147        -0.31396
C         51.66638        30.92333         0.00642
C         52.75083        33.04324        -0.34262
C         51.58204        33.97739        -0.18646
C         52.71404        36.22404        -0.32555
C         51.64673        35.33616        -0.87314
C         52.74901        37.26512         0.32400
C         51.60042        37.97361         0.90422
C         52.71204        40.22964         1.75161
C         51.58132        39.31531         1.57278
C         52.64986        41.47604         1.88162
C         51.58263        42.38037         1.91690
C         51.37965        43.74721         2.07282
O         41.37710        34.89023        -1.97956
O         46.52280        34.20214        -2.42045
O         46.63083        29.89902        -2.19586
O         42.08696        26.44600        -1.75627
O         50.39513        37.40672        -1.27005
O         38.82138        28.70615         2.36216
O         36.62026        43.01274        -2.77418
O         42.46505        45.49997         1.60974
O         48.03244        36.07835         1.46951
O         49.43273        39.58101         2.68237
O         39.56045        46.33277         1.08383
O         41.27825        42.16965        -1.74598
O         41.76591        38.66020        -2.06386
O         38.28288        42.07087         0.22216
O         35.63209        33.08569        -0.37807
O         31.87962        33.38596         2.55247
O         44.30009        43.46844        -1.00849
O         32.94741        39.61062        -1.31362
O         50.97811        31.47897         1.18405
O         39.86414        27.90949        -1.65764
O         32.85755        31.01872         2.30601
O         37.75196        32.51155         2.31872
O         32.37148        35.91501         2.31401
O         47.90116        44.39241         2.89952
O         51.53977        38.09230         2.32779
O         38.20726        37.14541        -1.79567
O         33.60638        34.78679        -0.82351
O         46.07477        42.38570         2.56665
O         42.58120        33.48860         1.07770
O         43.09223        31.27882        -1.93456
O         42.11169        30.13501         1.25301
O         40.12626        44.42805        -2.10525
O         36.77065        39.70855        -2.26465
O         43.97818        40.02409        -1.43675
O         45.42505        32.30115         0.49197
O         40.37628        36.84490         0.93520
O         34.26999        28.70508         2.38231
O         45.89975        34.91202         1.09321
O         44.30302        37.66002         1.54933
O         46.63102        38.87405        -0.70717
O         37.43660        45.11114         0.90688
H         37.64252        45.68311         1.67621
O         34.38997        38.74255         1.92068
H         34.48806        37.94368         2.48140
O         34.60858        41.41138        -2.65880
H         35.21759        40.74642        -3.05687
O         42.19524        28.91847        -2.16813
H         41.35416        28.38565        -2.30173
O         39.87588        31.18099         2.48430
H         39.48197        30.57849         3.15401
O         37.99917        36.48283         1.77057
H         38.60457        35.84604         2.22825
O         35.00371        44.19024         0.68669
H         34.47006        43.92296         1.46308
O         42.39487        41.60952         1.42274
H         43.09669        41.11494         1.93050
O         39.22822        39.30888        -2.78385
H         38.61575        38.61861        -3.12690
O         35.40725        31.81115         3.03283
H         35.59344        30.94384         3.46526
O         48.38381        31.15384         1.18425
H         49.09281        31.05722         1.85878
O         39.55067        34.31276         2.10494
H         39.49708        33.53253         2.70900
O         50.67618        32.79437        -2.13380
H         50.71645        33.63402        -2.64712
O         41.30209        25.04081         1.52579
H         41.17186        24.14600         1.90070
O         34.45006        44.43479        -2.89404
H         34.81270        43.61897        -3.31451
O         44.85661        26.91578        -2.40534
H         45.49094        27.40884        -2.96490
O         45.09861        44.86735         2.31840
H         44.17815        45.16617         2.50629
O         44.70788        40.26807         2.11622
H         45.22837        40.98738         2.60983
O         50.21210        41.90789         0.03311
H         51.06808        41.67763        -0.38540
O         40.99902        27.79174         1.74548
H         41.31229        28.46670         2.38724
O         44.32841        26.84685         1.16134
H         43.64659        26.43448         1.73319
O         36.64089        29.49563         3.05830
H         36.67883        28.60707         3.47082
O         46.11410        41.57759        -1.00466
H         45.50072        41.10345        -1.61984
O         47.02936        43.98511        -0.62098
H         46.65566        43.20768        -1.11705
O         47.49716        28.67380         1.22448
H         48.08698        28.02203         1.65688
O         39.51732        31.26479        -1.11401
H         40.03816        31.63818        -1.85792
O         36.28648        30.54476        -0.36322
H         36.19586        31.41387        -0.83017
O         31.90703        40.23535         2.10859
H         31.35130        39.71508         2.72566
O         37.96269        45.50625        -2.62062
H         38.02754        44.88560        -3.37676
O         44.25068        47.35750         1.90746
H         43.48975        47.90461         2.19042
O         48.72777        41.90688         3.35274
H         47.76292        42.08043         3.53265
O         51.70757        35.21249        -2.27567
H         51.62488        36.11110        -2.66253
O         48.69538        35.63569        -2.18226
H         48.85508        36.59110        -2.35259
O         45.31126        46.01299        -1.24844
H         46.07248        45.43120        -1.48829
O         48.50845        31.46205        -2.40640
H         47.96054        31.96877        -3.04336
O         32.06891        31.50509        -1.30003
H         31.46080        31.16983        -1.98989
O         51.36292        34.22760         1.18396
H         51.39194        33.36924         1.66852
O         43.79007        33.97746        -2.30301
H         42.85934        34.34549        -2.46173
O         38.57671        34.56965        -1.37034
H         38.63560        35.27937        -2.05173
O         34.29797        34.30918         2.73813
H         33.43808        34.35201         3.22937
