         324
 CSIRO Nanostructure Databank - Neutral Graphene Oxide Data Set
C          1.18513         3.48691        -0.45649
C          0.03089         4.19228        -0.19791
C          1.27484         6.16086         0.61567
C          0.07741         5.51875         0.28791
C          1.24401         7.63900         0.80424
C          0.01730         8.34088         0.85847
C          1.03685        10.49937         0.31143
C         -0.08342         9.72170         0.65790
C          0.94035        11.92669        -0.25073
C         -0.23403        12.72338         0.26014
C          0.99148        14.84363         0.14059
C         -0.20390        14.08264         0.36657
C          0.95752        16.32194        -0.03232
C         -0.20073        17.12722         0.36938
C          1.05613        19.23699         0.10633
C         -0.15219        18.48799         0.35579
C          1.01616        20.71005        -0.02621
C         -0.15169        21.51851         0.33859
C          1.16537        23.60693         0.39129
C         -0.08452        22.87488         0.41679
C          1.17808        25.07610         0.43842
C         -0.01782        25.83068         0.25300
C          1.23429        27.92305         0.16884
C          0.00981        27.20651         0.14337
C          1.27595        29.34074        -0.00749
C          3.64888         3.36533        -0.43404
C          2.45256         4.05793        -0.13570
C          3.74500         5.76187         0.96838
C          2.48040         5.35776         0.49461
C          3.73514         7.99162         0.91877
C          2.39946         8.46740         0.66017
C          3.46289        10.53720        -0.21531
C          2.27483         9.84132         0.32412
C          3.49461        12.01146        -0.04421
C          2.22436        12.73133        -0.10122
C          3.50329        14.87434         0.06199
C          2.20467        14.13010        -0.01959
C          3.54231        16.36521         0.03294
C          2.26462        17.10822        -0.17474
C          3.55984        19.25881         0.09492
C          2.27709        18.57380         0.00536
C          3.60713        20.66335         0.22219
C          2.37983        21.45562         0.01363
C          3.62936        23.52709         0.69093
C          2.35275        22.88329         0.35520
C          3.63162        25.03130         0.81389
C          2.39487        25.77856         0.52949
C          3.68467        27.92255         0.33440
C          2.45372        27.20327         0.35846
C          3.71586        29.31762         0.07993
C          2.46982        30.01610        -0.05440
C          6.16265         3.35304        -0.55680
C          4.92097         3.92177        -0.15985
C          6.21574         5.77465         0.81118
C          4.94981         5.13854         0.60293
C          6.19959         8.02256         0.68011
C          4.89251         8.57622         0.43727
C          6.05366        10.55626        -0.67042
C          4.77731         9.83209        -0.32828
C          6.08839        12.02827        -0.60039
C          4.84589        12.71386        -0.18269
C          6.03199        14.94033        -0.54477
C          4.74390        14.17470        -0.41095
C          6.03762        16.39129        -0.28847
C          4.81610        17.11432        -0.16140
C          6.09848        19.18189         0.38446
C          4.78568        18.50423         0.04467
C          6.09582        20.68232         0.24925
C          4.86602        21.37611         0.34529
C          6.11736        23.48132         0.31496
C          4.89683        22.79203         0.43927
C          6.09368        24.95183         0.14643
C          4.94478        25.74114         0.68215
C          6.22163        27.89021         0.05761
C          4.97172        27.22172         0.49277
C          6.20210        29.32228        -0.10627
C          4.95447        30.00062        -0.06498
C          8.62945         3.41804        -0.69609
C          7.39137         4.03489        -0.37905
C          8.61817         6.20165         0.29972
C          7.37787         5.36333         0.19975
C          8.60431         7.69283         0.11170
C          7.36017         8.44032         0.05352
C          8.62843        10.52267        -0.68567
C          7.34069         9.76737        -0.63155
C          8.60951        12.04596        -0.80156
C          7.29134        12.76365        -0.70783
C          8.53140        14.94457        -0.56786
C          7.29245        14.17415        -0.56650
C          8.49472        16.35609        -0.18026
C          7.29205        17.05062        -0.18508
C          8.55891        19.25630        -0.14254
C          7.25331        18.55365        -0.38055
C          8.57403        20.62639         0.01820
C          7.32046        21.37113         0.15044
C          8.60147        23.52636         0.01078
C          7.34338        22.79209         0.13256
C          8.61348        24.91396        -0.04057
C          7.36816        25.68838        -0.13670
C          8.64966        27.85283        -0.27449
C          7.40668        27.17423        -0.05118
C          8.65103        29.28899        -0.41092
C          7.42043        29.99231        -0.34363
C         11.07231         3.41545        -0.83968
C          9.88203         4.06716        -0.53843
C         11.10228         6.29647        -0.31197
C          9.90888         5.48023        -0.05243
C         11.06297         7.66251        -0.19602
C          9.81136         8.37828        -0.09672
C         11.03782        10.56116        -0.21473
C          9.85910         9.83075        -0.25946
C         11.04410        12.00810        -0.17223
C          9.85470        12.72457        -0.37614
C         11.06461        14.86588         0.12881
C          9.89980        14.17655        -0.42117
C         11.04997        16.30216         0.23504
C          9.73974        17.08362         0.27503
C         11.03377        19.20750        -0.01067
C          9.80831        18.46084        -0.42131
C         11.04852        20.61801        -0.00723
C          9.81930        21.35539        -0.02982
C         11.08751        23.43402        -0.26223
C          9.85214        22.77399        -0.06191
C         11.14296        24.90236        -0.18413
C          9.86383        25.68414        -0.00824
C         11.09201        27.80337        -0.55817
C          9.86428        27.13268        -0.33259
C         11.09956        29.23873        -0.69221
C          9.88292        29.95193        -0.60686
C         13.65781         3.43915        -0.91028
C         12.36069         4.12361        -0.95315
C         13.64389         6.26330        -0.33702
C         12.36556         5.62358        -0.67765
C         13.62774         7.69348         0.08112
C         12.33054         8.42755        -0.02082
C         13.58830        10.64528        -0.07903
C         12.34799         9.87329        -0.47385
C         13.54901        11.99207         0.20111
C         12.27520        12.70591         0.13425
C         13.46003        14.77885         0.82291
C         12.23149        14.10336         0.36299
C         13.47675        16.30159         0.83290
C         12.21670        16.99852         0.48582
C         13.52209        19.20693         0.48020
C         12.19389        18.47440         0.48442
C         13.51579        20.53238        -0.19723
C         12.29105        21.32046        -0.11286
C         13.57592        23.39054        -0.57454
C         12.32117        22.71163        -0.36871
C         13.58270        24.81573        -0.93424
C         12.29255        25.61049        -0.80492
C         13.52104        27.75317        -0.99716
C         12.32747        27.08953        -0.73122
C         13.55168        29.19599        -0.98915
C         12.33934        29.90205        -0.87729
C         16.12712         3.50339        -1.10722
C         14.83697         4.15956        -0.90062
C         16.07702         6.34135        -0.70216
C         14.80832         5.58635        -0.60700
C         16.11117         7.81394        -0.49731
C         14.93370         8.48744         0.16487
C         16.13116        10.64606         0.17627
C         14.89608         9.95472        -0.36832
C         16.09118        11.99597         0.59563
C         14.80217        12.71364         0.51647
C         15.95391        14.82833         1.19345
C         14.75292        14.06280         0.76096
C         15.99892        16.28725         0.84626
C         14.78682        16.97118         0.67772
C         16.08812        19.14849         0.31688
C         14.80609        18.44452         0.60553
C         16.07729        20.56705        -0.09023
C         14.86134        21.26815        -0.40171
C         16.03959        23.48357        -0.45990
C         14.82753        22.74515        -0.47068
C         16.05649        24.89989        -0.72644
C         14.84434        25.55563        -0.96403
C         16.09518        27.76833        -1.17437
C         14.77639        26.99995        -1.24575
C         16.03442        29.23136        -0.95197
C         14.79612        29.89047        -0.99850
C         18.63231         3.52996        -1.18183
C         17.32630         4.16129        -1.04475
C         18.61059         6.35077        -0.54964
C         17.34534         5.58076        -0.62215
C         18.59670         7.83010        -0.34041
C         17.38955         8.52556        -0.24383
C         18.55077        10.50938         0.61989
C         17.34829         9.90539         0.14917
C         18.47976        11.82594         1.19469
C         17.27551        12.61822         1.10044
C         18.47559        14.94797         1.51418
C         17.24183        14.08309         1.45676
C         18.47481        16.31667         1.07830
C         17.25447        16.94763         0.68637
C         18.57145        19.10838         0.33250
C         17.32021        18.31483         0.02979
C         18.57953        20.54595        -0.03799
C         17.30412        21.31487         0.10190
C         18.58973        23.53053        -0.23873
C         17.29684        22.82045        -0.08217
C         18.56221        24.94354        -0.41387
C         17.31579        25.63613        -0.66647
C         18.52113        27.79108        -0.60763
C         17.32377        27.03402        -0.80511
C         18.47716        29.22959        -0.61782
C         17.23837        29.91603        -0.73558
C         19.79435         4.22532        -1.13761
C         21.06634         6.35398        -0.47399
C         19.85851         5.73806        -1.13926
C         21.02346         7.61758         0.01993
C         19.81634         8.43064         0.04885
C         20.92492        10.30177         1.23107
C         19.77928         9.75805         0.60160
C         20.81839        11.47465         1.96190
C         19.62278        12.20279         1.96182
C         20.80112        15.23300         2.27853
C         19.61096        14.49851         2.18837
C         20.84797        16.49799         1.70616
C         19.69794        17.07967         1.14618
C         20.92752        19.30648         0.92093
C         19.72537        18.49504         0.75795
C         21.00172        20.61991         0.59047
C         19.85633        21.34240         0.01068
C         21.00112        23.58362        -0.01884
C         19.80216        22.84237        -0.03416
C         20.98852        24.96331        -0.14691
C         19.78329        25.67590        -0.33774
C         20.93730        27.89901        -0.26081
C         19.76430        27.12602        -0.40631
C         20.88925        29.29435        -0.28824
C         19.67761        29.95832        -0.45148
O          9.49096         5.67978         1.35470
O          9.42388        14.70847        -1.70909
O          1.51657        16.69186        -1.35651
O         19.33878        20.79844        -1.27022
O         17.24434        22.20986         1.28384
O          3.81932         6.89801         1.78783
O          6.26529         6.95075         1.57750
O         13.32470        15.52087         2.07916
O          8.81139        11.19973        -1.97330
O         19.58560        13.26518         2.85162
O          5.21342        26.58547         1.83706
O          4.34369        12.33677         1.14507
O         12.67816        25.09199        -2.10245
O         16.33980        14.45215         2.56153
O         15.50926        27.37977        -2.46035
O         12.32402         5.12656        -2.06301
O          3.58669        24.19027         2.01605
O          1.68826        21.15662        -1.24295
O         12.75022        19.14092         1.69699
O          6.45411        25.28708        -1.24276
O          6.61041         9.90387        -1.88021
O         12.85145         8.05605         1.29761
O         15.63075        19.02851         1.71001
O          3.61911        15.62149         1.31942
O          5.15705        14.58856        -1.73079
O         15.98709         7.29049        -1.84812
O          3.86196         9.90917        -1.47901
O         14.13109        20.57109        -1.51459
O         18.08453         5.70660         0.65874
O         10.75912        25.39874         1.13943
O         17.30657        18.10369        -1.42264
H         18.22134        17.90364        -1.71321
O          9.53306        17.40589         1.67764
H          9.68465        16.60436         2.21989
O          6.34001        18.89282         1.79410
H          5.63131        19.31579         2.32231
O         12.38736         9.74292        -1.95212
H         11.97838        10.54630        -2.34176
O          6.97305        18.72046        -1.79967
H          7.73077        18.32602        -2.28983
O         15.30636         8.55018         1.56035
H         14.47109         8.56812         2.08448
O         15.06395         9.93569        -1.80691
H         14.19539         9.68642        -2.21114
O          9.84826        18.19239        -1.86314
H         10.09715        19.02386        -2.32028
O          0.69008        11.72058        -1.68476
H          0.64142        12.60425        -2.10770
O         19.88655         6.15637        -2.53951
H         20.69183         5.78236        -2.95361
H          1.14300         2.48552        -0.90763
H         -0.94773         3.75101        -0.43322
H         -0.87686         6.05703         0.35332
H         -0.91942         7.79716         1.04181
H         -1.08343        10.17693         0.68955
H         -1.19520        12.20373         0.38317
H         -1.13192        14.61426         0.62372
H         -1.12495        16.62448         0.68721
H         -1.06586        19.04582         0.60470
H         -1.10936        21.01826         0.54000
H         -1.00798        23.42650         0.64103
H         -0.98503        25.31574         0.18176
H         -0.92871        27.76205         0.00235
H          0.32802        29.88499        -0.12910
H          3.58168         2.39094        -0.93965
H          2.48667        31.10329        -0.21791
H          6.16953         2.36411        -1.03820
H          4.93950        31.08954        -0.22178
H          8.62010         2.38890        -1.08558
H          7.41973        31.08441        -0.47514
H         11.03988         2.35184        -1.12323
H          9.89632        31.04821        -0.69667
H         13.68186         2.34015        -0.96578
H         12.35554        31.00151        -0.91298
H         16.11118         2.42952        -1.35080
H         14.77978        30.98778        -0.91709
H         18.66133         2.43369        -1.28499
H         17.22566        31.01176        -0.63742
H         20.74879         3.68119        -1.22467
H         22.01677         5.79732        -0.46858
H         21.95160         8.04154         0.42961
H         21.88004         9.76231         1.22380
H         21.66370        11.84327         2.55699
H         21.66725        14.81339         2.80460
H         21.78885        17.05834         1.76242
H         21.82188        18.84633         1.36112
H         21.92346        21.17410         0.81984
H         21.96326        23.06880         0.10646
H         21.94532        25.49976        -0.10516
H         21.90952        27.41059        -0.11483
H         21.81724        29.87041        -0.16785
H         19.64344        31.05700        -0.45647
