         404
 CSIRO Nanostructure Databank - Neutral Graphene Oxide Data Set
C          1.32186         1.67201         0.88356
C          1.23786         2.74623        -0.02529
C          2.53305         1.37844         1.46943
C          2.35512         3.54899        -0.24917
C          1.07168         6.51958        -0.86267
C          1.08867         7.87116        -0.54657
C          2.26382         5.79249        -0.80231
C          2.29922         8.52997        -0.23540
C          1.18410        10.74806        -0.24413
C          1.20230        12.16251        -0.08990
C          2.29597         9.97052        -0.01629
C          2.36770        12.85251         0.20316
C          1.15530        15.13596         0.26946
C          1.20603        16.47548         0.44723
C          2.42207        14.35538        -0.01040
C          2.46594        17.20462         0.51995
C          2.51361        18.62364         0.55633
C          3.70169         2.17041         1.21102
C          3.59508         3.37949         0.41708
C          4.93469         1.66377         1.62053
C          4.74335         4.24702         0.19420
C          3.49004         6.37065        -0.41125
C          3.50883         7.77888        -0.17472
C          4.70828         5.56670        -0.25787
C          4.79354         8.47570        -0.05376
C          3.52458        10.61462         0.57168
C          3.58629        12.12019         0.39563
C          4.80681         9.92417         0.16596
C          4.82255        12.76799         0.53938
C          3.58696        15.00322         0.70667
C          3.66411        16.47816         0.63700
C          4.85318        14.21500         0.85093
C          4.90628        17.12726         0.80288
C          3.71811        19.28162         0.69902
C          4.94415        18.55936         0.82218
C          6.16641         2.39911         1.39169
C          6.06926         3.74805         0.68707
C          7.45271         1.71757         1.39063
C          7.33721         4.29608         0.13361
C          5.97636         6.30360        -0.64459
C          5.95842         7.78184        -0.29916
C          7.28519         5.63709        -0.26933
C          7.19937         8.56242        -0.68174
C          5.99443        10.63234         0.20714
C          6.05687        12.05485         0.46574
C          7.26177         9.88296         0.06280
C          7.30225        12.76350         0.54367
C          6.13396        14.93872         0.86471
C          6.13273        16.37575         0.91027
C          7.33074        14.20050         0.74494
C          7.34955        17.07382         1.03628
C          6.18299        19.22424         0.93895
C          7.39464        18.50535         1.02839
C          8.63226         2.25061         0.86876
C          8.56992         3.57572         0.22371
C          9.81576         1.47127         1.15532
C          9.74701         4.28179        -0.20351
C          8.49529         6.39996        -0.37611
C          8.48419         7.78822        -0.53064
C          9.75036         5.69335        -0.32768
C          9.74646         8.52044        -0.67879
C          8.54323        10.63367         0.15787
C          8.54606        12.09660         0.37538
C          9.77612        10.02347        -0.41499
C          9.78513        12.77730         0.39794
C          8.59110        14.87360         0.83620
C          8.59022        16.30498         1.18308
C          9.81017        14.19549         0.64974
C          9.91458        17.06928         1.11366
C          8.64620        19.19757         0.98686
C          9.87493        18.53345         0.91085
C         11.07304         1.61033         0.52690
C         11.00223         3.62866        -0.37784
C         12.35392         1.28845         0.94666
C         12.22045         4.26902        -0.22999
C         10.99609         6.39324        -0.41864
C         11.01941         7.80996        -0.52383
C         12.23039         5.68708        -0.30903
C         12.23266         8.51979        -0.40576
C         11.05049        10.67895        -0.09875
C         11.03436        12.06901         0.22059
C         12.24986         9.95313        -0.21472
C         12.27090        12.77013         0.26600
C         11.06956        14.91001         0.60858
C         11.11497        16.32631         0.70989
C         12.28383        14.19917         0.37911
C         12.30742        17.04652         0.47968
C         11.09178        19.20019         0.65469
C         12.31033        18.49639         0.49423
C         13.55075         2.09807         0.53534
C         13.48484         3.54849         0.08208
C         14.83849         1.42600         0.29503
C         14.72921         4.22924        -0.36406
C         13.47142         6.37920        -0.40054
C         13.46621         7.79123        -0.40755
C         14.70651         5.64389        -0.50723
C         14.71361         8.48793        -0.36296
C         13.50070        10.62104         0.00094
C         13.50982        12.05692         0.16904
C         14.69964         9.88534        -0.07184
C         14.72645        12.77782         0.14663
C         13.51315        14.91126         0.24120
C         13.52734        16.34186         0.26168
C         14.73834        14.19982         0.09129
C         14.75012        17.05231         0.10656
C         13.52996        19.18031         0.30134
C         14.75185        18.49365         0.12349
C         15.96781         2.09331        -0.13888
C         15.94033         3.52387        -0.44750
C         17.23513         1.40869        -0.18711
C         17.13360         4.20787        -0.84089
C         15.92865         6.34997        -0.69839
C         15.92968         7.78009        -0.56215
C         17.12715         5.60207        -0.95283
C         17.17492         8.51063        -0.53147
C         15.97629        10.53725         0.20739
C         16.00328        12.06799         0.26466
C         17.20816         9.82942        -0.14396
C         17.25890        12.75941        -0.11565
C         15.97351        14.91374        -0.05878
C         15.97573        16.34315        -0.05968
C         17.20394        14.21060        -0.24924
C         17.19954        17.06834        -0.21664
C         15.97699        19.19200        -0.03778
C         17.19876        18.51653        -0.21127
C         18.40040         2.02166        -0.60894
C         18.29417         3.35634        -1.34015
C         19.64767         1.33810        -0.49013
C         19.64230         4.08746        -1.43518
C         18.35076         6.35506        -1.34128
C         18.40207         7.83273        -1.01778
C         19.64898         5.59978        -1.51477
C         19.70110         8.52357        -0.79065
C         18.49135        10.56438         0.13413
C         18.42334        12.03611        -0.25725
C         19.70374         9.84571        -0.40355
C         19.66383        12.72121        -0.66521
C         18.38581        14.94731        -0.44865
C         18.41082        16.36904        -0.40378
C         19.62778        14.22551        -0.75566
C         19.65256        17.09918        -0.62442
C         18.42680        19.21831        -0.37022
C         19.65142        18.55601        -0.57917
C         20.88747         1.95048        -0.68175
C         20.92846         3.37511        -1.10989
C         22.12159         1.27291        -0.54823
C         22.15767         4.14044        -0.76542
C         20.94844         6.32807        -1.29387
C         20.93966         7.78386        -0.98289
C         22.16836         5.57306        -0.88468
C         22.16111         8.41876        -0.89055
C         20.96300        10.59867        -0.27901
C         20.97975        12.05526        -0.52200
C         22.22523         9.84804        -0.55249
C         22.16591        12.73872        -0.71710
C         20.90390        14.97866        -0.59532
C         20.84279        16.42792        -0.83400
C         22.19931        14.22436        -0.68031
C         22.08107        17.14310        -1.18490
C         20.89127        19.24791        -0.64629
C         22.12384        18.59235        -0.88510
C         23.34722         1.97496        -0.50267
C         23.30439         3.42767        -0.41418
C         24.60587         1.32668        -0.51344
C         24.49855         4.12412         0.08663
C         23.35085         6.28264        -0.68548
C         23.41532         7.70447        -0.87808
C         24.53260         5.62501        -0.11949
C         24.64067         8.38694        -0.77190
C         23.39304        10.60366        -1.04189
C         23.43170        12.05792        -0.88741
C         24.69298         9.83195        -1.11222
C         24.63660        12.72015        -1.09918
C         23.40011        14.92392        -1.11887
C         23.39097        16.37242        -1.35286
C         24.61035        14.17070        -1.35396
C         24.67927        17.10627        -1.22850
C         23.36769        19.23027        -0.85761
C         24.62658        18.55270        -1.01991
C         25.83167         1.99907        -0.29238
C         25.79694         3.36216         0.36444
C         27.06760         1.37459        -0.45314
C         27.06302         4.18949         0.16081
C         25.82197         6.33502        -0.11755
C         25.83570         7.70171        -0.40202
C         27.02254         5.58933         0.16551
C         27.02572         8.55994        -0.03902
C         25.91048        10.63277        -0.99113
C         25.90740        12.02100        -1.10627
C         27.14497         9.85611        -0.82201
C         27.16527        12.78416        -0.99554
C         25.94715        14.94630        -1.36088
C         25.87349        16.41346        -1.18127
C         27.17462        14.21160        -0.99980
C         27.17342        17.10962        -1.20039
C         25.81223        19.26079        -0.84314
C         27.12130        18.65768        -1.05294
C         28.31105         2.04761        -0.21572
C         28.31197         3.46387         0.08800
C         29.53583         1.37747        -0.35699
C         29.55483         4.12068         0.14603
C         28.26227         6.36307         0.35970
C         28.31863         7.80876         0.02869
C         29.55508         5.57364         0.40655
C         29.50558         8.53443         0.06989
C         28.42625        10.62612        -0.72897
C         28.38256        12.09724        -0.76311
C         29.59496         9.93967        -0.16794
C         29.59880        12.80320        -0.55245
C         28.38078        14.93721        -0.76521
C         28.40571        16.40604        -0.80326
C         29.58838        14.21939        -0.60633
C         29.56559        17.13055        -0.47841
C         28.35806        19.30127        -0.63571
C         29.55840        18.61503        -0.50060
C         30.80857         1.99048        -0.16055
C         30.81160         3.43183         0.05902
C         31.98441         1.20342        -0.38872
C         32.02093         4.20088         0.04445
C         30.74123         6.35813        -0.01948
C         30.75553         7.79992         0.35478
C         32.01073         5.64151        -0.28960
C         32.04486         8.53308         0.37700
C         30.81569        10.66762        -0.06110
C         30.82965        12.08650        -0.26951
C         32.03687         9.99047         0.21138
C         32.05287        12.79927        -0.06668
C         30.89744        14.95858        -0.74179
C         30.78094        16.37473        -0.22766
C         32.07793        14.21574        -0.15489
C         31.90843        16.91356         0.35168
C         30.76350        19.42666        -0.53424
C         31.96143        19.05267         0.06926
C         33.27002         1.55905         0.08233
C         33.26104         3.65681         0.40483
C         34.57825         1.22533        -0.30683
C         34.53220         4.21315         0.14157
C         33.29589         6.41763        -0.28424
C         33.30865         7.82606         0.11988
C         34.59512         5.65538        -0.16631
C         34.50368         8.50141         0.35744
C         33.26539        10.67452         0.31478
C         33.26610        12.10089         0.26324
C         34.48980         9.94838         0.51465
C         34.47959        12.80048         0.51964
C         33.25950        14.91482         0.15697
C         33.22937        16.34575         0.26023
C         34.48105        14.23783         0.46478
C         34.41106        17.11769         0.29483
C         33.29667        19.39854        -0.20957
C         34.43199        18.57492         0.10055
C         35.74063         2.01810         0.01659
C         35.72842         3.46285         0.22138
C         37.00696         1.39635        -0.08653
C         36.97477         4.20126         0.29364
C         35.78777         6.38204         0.27811
C         35.73514         7.76018         0.46413
C         36.99255         5.62465         0.43784
C         36.94020         8.43788         0.96238
C         35.67751        10.66551         0.75118
C         35.67045        12.07625         0.79434
C         36.92267         9.94545         1.09908
C         36.91246        12.78497         1.15395
C         35.66069        14.99453         0.60403
C         35.66500        16.40373         0.37218
C         36.90894        14.32644         1.01412
C         36.92538        17.07165         0.25950
C         35.68237        19.20364         0.03673
C         36.92782        18.51685         0.11740
C         38.22402         2.09087         0.07385
C         38.21744         3.50887         0.26657
C         39.48218         1.40958         0.02201
C         39.45381         4.22076         0.38700
C         38.22603         6.34177         0.60498
C         38.22645         7.74352         0.82065
C         39.46570         5.63796         0.56182
C         39.43299         8.47760         0.95524
C         38.21995        10.65377         1.06722
C         38.20496        12.08484         1.07876
C         39.40828         9.91693         1.11096
C         39.41708        12.82954         1.05540
C         38.18838        14.98988         0.75232
C         38.14953        16.35029         0.35032
C         39.41167        14.26324         0.86438
C         39.42192        17.02294         0.06730
C         38.11504        19.24820         0.12736
C         39.40574        18.60130        -0.03020
C         40.66823         2.09432         0.14957
C         40.68579         3.51019         0.32942
C         41.90431         4.23910         0.44930
C         40.69539         6.36025         0.66300
C         40.67570         7.78303         0.81861
C         41.91144         5.60736         0.60542
C         41.88541         8.57523         0.73853
C         40.68580        10.63784         1.48077
C         40.66233        12.12673         1.15689
C         41.89927         9.90752         0.96903
C         41.84822        12.85177         1.12602
C         40.66506        14.95779         0.75929
C         40.68506        16.38921         0.47220
C         41.85344        14.23869         0.91517
C         41.83194        17.15733         0.54244
C         40.64762        19.28752         0.31149
C         41.80583        18.58531         0.48206
O         21.85412        10.16195         0.82449
O          9.36046        16.63021         2.39569
O         31.36602         8.06588         1.65784
O         16.06722        11.26115         1.50211
O         31.80533        18.08756         1.09067
O          3.95038        14.49543         2.01610
O         39.48016        17.72358        -1.20090
O         33.23527         2.48229         1.15778
O         27.29603        17.97918        -2.35656
O         13.64481         3.22458         1.52482
O         28.00181         9.90733        -1.98878
O         23.90194        10.13852        -2.31989
O         34.10290         6.09516        -1.47804
O         18.17431         7.34808        -2.39321
O         24.20610         5.02507         1.20875
O          8.03310         9.84547         1.30988
O         19.55248        13.41841        -1.97363
O         21.64876        14.70173         0.64978
O         36.76083         9.08641         2.28127
O          9.70099         9.52555        -1.77695
O         22.57625        16.78671        -2.52585
O         36.80246        13.66516         2.32018
O         11.00741         2.28208        -0.71463
O          6.16146         3.70361         2.13343
O         31.11905         6.04870        -1.39500
O          2.23758         4.48247        -1.29291
O         28.94664         6.02401         1.64088
O         20.46653         3.52502        -2.50758
O         25.32730        14.51189        -2.60338
O         20.43638         6.05440        -2.64916
O         26.73837         9.02750         1.32810
H         26.81321         8.25867         1.93384
O         31.16073        15.01517        -2.18984
H         30.38888        15.45250        -2.60970
O          2.72234        14.53736        -1.43498
H          1.97855        14.15940        -1.94960
O         18.67956        10.54202         1.58705
H         17.82585        10.85199         1.98233
O          5.98236         6.26887        -2.13257
H          5.07080         6.48516        -2.42763
O         40.76718        10.55905         2.95173
H         39.91368        10.88525         3.30975
O         25.79986         3.06784         1.79389
H         25.42119         3.86065         2.24038
O          3.41251        10.39095         2.02994
H          4.13356        10.89969         2.45989
O         17.91745         3.01964        -2.70449
H         18.75769         2.87973        -3.20058
O          7.03186         8.88042        -2.09517
H          6.92360         8.01867        -2.56283
H          0.44021         1.04633         1.07753
H          0.31449         2.93741        -0.58618
H          2.63628         0.50112         2.12296
H          0.14367         6.02220        -1.17141
H          0.14430         8.42867        -0.57510
H          0.25123        10.30335        -0.61674
H          0.27542        12.71121        -0.30869
H          0.17925        14.63001         0.22962
H          0.27460        17.05055         0.56444
H          1.57777        19.19535         0.47544
H          4.98807         0.65630         2.05809
H          3.74695        20.38060         0.72418
H          7.47187         0.69205         1.79065
H          6.20868        20.32405         0.92807
H          9.72747         0.74973         1.98178
H          8.62828        20.29442         0.89912
H         12.48310         0.70364         1.87084
H         11.09341        20.29728         0.56977
H         14.89939         0.34208         0.47792
H         13.53098        20.28063         0.30691
H         17.28304         0.38493         0.21667
H         15.96698        20.29225        -0.02818
H         19.62636         0.29362        -0.14044
H         18.41357        20.31796        -0.32788
H         22.12357         0.17992        -0.42195
H         20.89536        20.33685        -0.48521
H         24.63452         0.25083        -0.74670
H         23.40017        20.31451        -0.66990
H         27.09929         0.33457        -0.81408
H         25.77051        20.30426        -0.49572
H         29.51432         0.30374        -0.59996
H         28.34949        20.39224        -0.49190
H         31.86552         0.27438        -0.96791
H         30.73124        20.33810        -1.15024
H         34.74589         0.31838        -0.90838
H         33.49734        20.33917        -0.74551
H         37.04594         0.31317        -0.27888
H         35.71239        20.29321        -0.11589
H         39.48713         0.31945        -0.12336
H         38.07756        20.34200         0.24262
H         41.62494         1.55352         0.10774
H         42.85595         3.68883         0.41386
H         42.87595         6.12437         0.70060
H         42.81862         8.08175         0.43082
H         42.84899        10.45159         0.86807
H         42.81396        12.34564         1.25607
H         42.82247        14.75135         0.85494
H         42.79339        16.68701         0.79019
H         40.62344        20.37644         0.46366
H         42.74038        19.12434         0.69330
