         260
 CSIRO Nanostructure Databank - Neutral Graphene Oxide Data Set
C         30.29904        31.95783         0.33901
C         30.33200        33.19596         0.28145
C         30.31134        36.37941        -0.50605
C         30.29193        37.48717        -1.03825
C         30.50626        40.59320        -2.43139
C         30.59084        41.85008        -2.58999
C         32.71636        29.23278         1.37802
C         31.65214        29.74473         1.01035
C         32.71454        31.89156         0.61561
C         31.35654        31.22149         1.12105
C         32.74199        33.35612         0.25531
C         31.44191        34.14614         0.31087
C         32.71404        36.24818        -0.53183
C         31.45156        35.59043        -0.03655
C         32.69942        37.47326        -1.13268
C         31.41481        38.21763        -1.72545
C         32.35567        40.56569        -1.12468
C         31.34711        39.74622        -1.67380
C         32.63615        41.91275        -1.45452
C         31.66132        42.67028        -2.19347
C         33.10178        44.57654        -1.84865
C         32.08170        44.04454        -2.31502
C         35.44505        27.65209         1.98184
C         35.33822        29.16940         2.01588
C         34.02368        29.85166         1.65886
C         35.26262        31.84627         0.61008
C         34.00526        31.26559         1.09645
C         35.30163        33.29000         0.27845
C         34.04486        34.13932         0.28969
C         35.02422        35.79003        -1.47260
C         34.10214        35.62933        -0.22281
C         35.18224        37.26787        -1.82683
C         34.00269        38.07908        -1.43348
C         35.28822        40.19699        -1.53589
C         34.19614        39.37677        -1.07400
C         35.13179        41.65081        -1.56574
C         34.02018        42.42577        -1.30870
C         35.43011        44.55354        -0.49480
C         34.20386        43.92776        -1.09923
C         35.80730        45.99126        -0.40804
C         37.87205        27.71245         2.23369
C         36.52397        27.16034         2.35861
C         37.85441        28.98423         1.44669
C         36.54610        29.59057         1.12190
C         37.79735        31.75998         0.53613
C         36.46502        31.02492         0.52674
C         37.75496        32.97123        -0.40736
C         36.45965        33.75117        -0.57043
C         37.74146        35.78008        -1.66613
C         36.40359        35.05429        -1.35688
C         37.88429        37.35849        -1.88486
C         36.48912        38.01912        -1.98522
C         38.22772        40.56586        -1.16643
C         36.40410        39.50564        -1.95974
C         38.16471        41.82491        -0.61236
C         37.09465        42.74019        -0.97608
C         37.71836        44.33215         0.79502
C         36.74238        43.82246        -0.23564
C         37.91977        45.84618         0.83005
C         36.67999        46.46131         0.33214
C         40.34167        24.82931         2.22992
C         39.27070        25.45839         2.47590
C         40.34998        27.39495         1.40852
C         39.14972        26.90643         2.26646
C         40.32217        28.89962         1.18050
C         39.09043        29.56241         1.04243
C         40.30410        31.63343         0.17855
C         39.00285        30.83046         0.17802
C         40.31698        33.03503        -0.32446
C         39.02753        33.62866        -0.81464
C         40.23227        35.82718        -0.84307
C         39.01795        35.05884        -1.30473
C         40.16234        37.28475        -0.54185
C         38.84661        37.99969        -0.83992
C         40.15152        39.96612         0.23596
C         38.97794        39.45788        -0.52892
C         39.81042        41.13751         1.01404
C         38.94575        42.11387         0.59306
C         40.07709        44.06252         2.02493
C         38.84621        43.44726         1.27382
C         40.06263        45.54031         2.35003
C         39.01835        46.42453         1.63722
C         40.08706        48.35440         2.68405
C         39.11487        47.78682         2.18071
C         42.95033        24.75268         1.98614
C         41.66279        25.24246         2.08884
C         42.86757        27.31329         1.08383
C         41.69330        26.85691         1.96909
C         42.92298        28.78987         0.81176
C         41.61819        29.54970         0.82473
C         42.83856        31.49364        -0.40038
C         41.55797        30.82346         0.02958
C         42.84934        32.95398        -0.57809
C         41.58276        33.64170        -0.84663
C         42.81553        35.92820        -0.90297
C         41.54752        35.13500        -1.08125
C         42.70744        37.30019        -0.20509
C         41.46908        38.12103        -0.66539
C         42.64994        40.13107         0.55692
C         41.42134        39.43105         0.14799
C         42.71852        41.35680         1.21984
C         41.59069        42.06186         1.82217
C         42.66246        44.28773         1.74506
C         41.43837        43.41681         1.93040
C         42.63767        45.51023         2.66596
C         41.33027        46.22711         2.86825
C         42.67914        48.30080         3.14832
C         41.31981        47.77013         3.20823
C         44.09431        25.31427         1.85642
C         45.42368        27.27065         0.76725
C         44.16961        26.52955         1.01665
C         45.44570        28.63188         0.37214
C         44.10958        29.26663        -0.06155
C         45.42745        31.48786        -0.40872
C         44.13947        30.79823        -0.09333
C         45.40364        32.92811        -0.91764
C         44.09446        33.65553        -0.91823
C         45.27609        35.85334        -0.14194
C         44.10417        35.16716        -0.80856
C         45.26591        37.35272        -0.01980
C         44.00909        38.12375        -0.44241
C         45.20446        40.33966        -0.14680
C         44.02068        39.45403         0.37631
C         45.16927        41.79750         0.44753
C         44.02075        42.06042         1.42449
C         45.21412        44.33241         1.70488
C         43.97461        43.50437         1.86607
C         45.15292        45.68310         2.06079
C         43.97805        46.25917         2.73401
C         43.72670        47.67710         2.95875
C         47.81038        27.32881         0.65095
C         46.72023        26.73967         0.88670
C         47.96652        28.66526         0.25255
C         46.68480        29.31548         0.13056
C         47.82135        31.13409        -1.00181
C         46.66045        30.64317        -0.46485
C         47.82725        33.29466        -1.13619
C         46.62924        33.77223        -0.71125
C         47.86321        35.95774        -0.28678
C         46.59003        35.13125        -0.14297
C         47.73526        37.44214        -0.30401
C         46.55257        38.12261        -0.08469
C         47.69608        40.31300         0.14641
C         46.52180        39.58685         0.02984
C         47.72815        41.72412         0.50862
C         46.50597        42.36174         0.91618
C         47.76023        44.35909         1.72103
C         46.47321        43.66065         1.43357
C         47.58037        45.80728         1.86347
C         46.43656        46.28708         1.95541
C         50.59081        28.89839        -0.19594
C         49.23278        29.39948         0.07262
C         50.34392        31.55467        -1.26236
C         49.16733        30.81273        -0.56264
C         50.31554        33.11080        -1.12006
C         49.14100        33.87462        -0.92531
C         50.20118        36.07635        -1.28135
C         49.10116        35.28872        -0.74753
C         50.12744        37.63456        -1.18534
C         49.01290        38.18665        -0.36270
C         50.16882        40.48103        -0.47910
C         49.01573        39.65937        -0.03698
C         50.13285        41.87305        -0.19281
C         48.96316        42.41029         0.49487
C         50.23222        44.46918         0.76738
C         49.05178        43.71848         1.18809
C         51.57209        29.48734        -0.66424
C         52.75073        31.73483        -1.54921
C         51.76155        30.97483        -0.69784
C         52.68234        32.96729        -1.64192
C         51.59995        33.86307        -1.21877
C         52.52149        36.36540        -1.89919
C         51.55165        35.40460        -1.36879
C         52.34409        37.60367        -1.89929
C         51.34149        38.44589        -1.35417
C         52.35423        40.77121        -1.26513
C         51.33333        39.82217        -1.02060
C         52.34827        42.01528        -1.08076
C         51.28453        42.71702        -0.48623
C         51.09223        44.05023        -0.02931
O         36.19050        33.78166        -2.00722
O         43.19081        26.52614        -0.08961
O         41.14071        46.79444         4.21489
O         49.75126        36.91343        -2.40171
O         42.59869        29.62518         1.94511
O         40.38980        32.74940         1.12190
O         49.42247        38.65570         0.96168
O         34.29813        44.21299         0.33063
O         49.28890        30.60704         0.87359
O         44.73482        33.14566        -2.18614
O         47.40571        35.38386         1.01726
O         37.62898        43.65045         2.07019
O         44.20234        42.42733         2.82243
O         51.91034        34.76218        -0.13198
O         41.98989        30.73193        -1.35173
O         34.86312        34.06149         1.48231
O         40.08207        36.31797         0.53202
O         36.30740        29.80928        -0.30086
O         33.24513        39.95852        -0.23534
O         36.26270        42.35830        -2.03271
O         39.15056        46.28500         0.19161
O         37.54363        40.22483        -2.34144
O         40.49916        41.28182         2.21671
O         38.34711        32.70988        -1.70430
O         33.85341        30.98519         2.55642
O         47.76512        32.15790        -1.95787
O         43.70717        35.84574        -2.05546
O         38.14984        38.52539         0.31500
O         41.49709        34.23444        -2.20416
O         48.69143        43.70237         2.58067
O         45.01816        40.55381        -1.61354
O         43.49495        45.42667         3.82648
O         35.74154        37.47774        -3.15799
O         32.73617        32.30778        -0.76557
O         45.03210        36.49640         1.14966
O         38.57344        35.14845        -2.67750
O         44.88472        31.42444         0.97445
O         38.75819        27.69773         3.38268
O         39.61538        44.56425         3.32043
O         31.46894        35.15932         1.34833
O         31.20436        31.52283         2.47543
H         30.38844        31.10930         2.82277
O         42.66743        44.81577         0.38681
H         43.16490        44.19517        -0.19497
O         40.21471        26.78723         0.10669
H         39.55523        27.27990        -0.42547
O         42.51116        37.09778         1.19837
H         43.31457        36.64809         1.56573
O         46.16127        40.06237        -2.35361
H         45.79629        39.22625        -2.74403
O         37.91203        32.21518         1.89185
H         38.81124        32.60526         2.02396
O         44.76028        42.71664        -0.62297
H         45.11931        42.36322        -1.47403
O         34.73005        36.42431         0.78705
H         34.32602        36.22133         1.65803
O         41.52239        38.44531        -2.05811
H         42.41001        38.82916        -2.26425
O         51.91327        31.41066         0.61645
H         52.70501        31.00627         1.02465
O         31.43361        37.87173        -3.10247
H         30.71767        38.35884        -3.56263
O         34.29025        35.19523        -2.54372
H         34.78240        35.33775        -3.38005
O         38.53018        37.56492        -3.13513
H         37.97251        37.17862        -3.84393
O         44.12034        38.38643        -1.85681
H         44.06946        37.50606        -2.31818
O         44.43096        39.12876         1.71818
H         43.69912        38.64926         2.16585
O         43.88003        28.83449        -1.41098
H         43.66562        27.87086        -1.39666
O         50.30381        31.20490        -2.64582
H         49.48131        31.57366        -3.03724
O         38.85779        30.31567        -1.15341
H         37.92551        30.01389        -1.27487
O         35.71614        29.57192         3.31727
H         34.99159        30.08846         3.73554
O         41.85990        27.35705         3.27452
H         42.76272        27.17007         3.60369
