         651
 CSIRO Nanostructure Databank - Neutral Graphene Oxide Data Set
C          5.78218        31.86836         1.17126
C          5.75977        33.22886         0.96721
C          8.25744        27.55218         1.53789
C          8.19291        28.89182         1.21157
C          7.00536        29.70478         1.33757
C          8.08732        31.67796         0.26933
C          6.93762        31.03133         0.94312
C          8.07206        33.17001         0.09878
C          6.89982        33.98411         0.50692
C          8.09565        36.10876        -0.04464
C          6.91920        35.36287         0.35934
C          8.15314        37.47787        -0.21719
C         10.75556        23.28542         1.33921
C         10.75929        24.67249         1.49618
C          9.52423        25.41878         1.55867
C         10.75280        27.52671         1.30108
C          9.49422        26.79829         1.46093
C         10.72382        28.87732         1.01547
C          9.43313        29.52060         0.68756
C         10.67193        31.71503         0.11941
C          9.39928        30.94062         0.21928
C         10.60789        33.09237        -0.25275
C          9.38053        33.86595         0.01759
C         10.51810        35.99953        -0.85638
C          9.37930        35.35359        -0.09688
C         10.61121        37.46042        -0.50846
C          9.42204        38.19765        -0.39097
C         10.74037        40.31056        -0.64254
C          9.49589        39.61602        -0.41854
C         10.82625        41.72798        -0.75405
C         13.22828        18.90016         1.01324
C         13.17645        20.34091         0.73641
C         11.94939        21.13214         0.97526
C         13.20937        23.24092         1.16929
C         11.95684        22.51588         1.12619
C         13.21639        24.57594         1.57728
C         12.01427        25.39539         1.58750
C         13.21725        27.58074         1.22871
C         12.01885        26.81057         1.46548
C         13.14603        28.85324         0.41653
C         11.99265        29.70406         0.97720
C         13.14961        31.76555         0.01910
C         11.88427        31.05423         0.29956
C         13.04254        33.24201        -0.07249
C         11.80753        33.85303        -0.39093
C         13.02847        35.91750        -0.90110
C         11.81638        35.24977        -0.67949
C         12.95490        37.34758        -1.31543
C         11.96038        38.10787        -0.39273
C         13.27327        40.24811        -0.88151
C         11.94138        39.58280        -0.69007
C         13.28326        41.72162        -1.19050
C         12.06529        42.42893        -0.97091
C         13.26735        44.64714        -0.92007
C         12.04573        43.84328        -0.90414
C         13.33164        45.88801        -0.16868
C         15.69929        14.69447         0.32556
C         15.70214        16.04955         0.65726
C         14.44589        16.71681         1.19265
C         15.68167        18.94420         1.10233
C         14.42569        18.23038         1.03197
C         15.75104        20.33548         1.08399
C         14.52079        21.07409         0.72109
C         15.80713        23.26068         1.12989
C         14.49220        22.56513         0.86231
C         15.72301        24.61258         1.71126
C         14.48845        25.10968         1.99796
C         15.71743        27.60310         1.13111
C         14.46110        27.20075         1.69544
C         15.66703        28.88523         0.47967
C         14.47410        29.58374         0.40818
C         15.82066        31.65831         0.05077
C         14.47154        31.01089         0.02828
C         16.00453        33.03712         0.21860
C         14.12754        34.10286         0.10789
C         15.61399        35.98242        -0.74672
C         14.26872        35.33909        -0.54451
C         15.59477        37.29272        -1.53052
C         14.29281        38.03187        -1.43514
C         15.99623        40.42010        -1.89580
C         14.13993        39.35516        -1.76085
C         15.87594        41.75928        -1.43199
C         14.54973        42.46408        -1.70900
C         15.83053        44.55088        -0.69876
C         14.60895        43.94387        -1.25936
C         15.80388        45.88971        -0.24910
C         14.54027        46.56668        -0.00363
C         15.76317        48.60265         0.64900
C         14.56131        47.92389         0.43092
C         15.79088        50.03472         0.65357
C         18.28337        10.54634        -0.23163
C         18.17791        11.93608        -0.44029
C         16.95233        12.61919        -0.23786
C         18.10206        14.78806        -0.16051
C         16.89490        14.03428        -0.06789
C         18.12760        16.11797         0.28680
C         16.92532        16.75800         0.67549
C         18.19017        18.81718         1.59460
C         16.91002        18.12496         1.26715
C         18.18516        20.31025         1.98777
C         16.96630        21.06988         1.44424
C         18.18549        23.20827         1.98226
C         16.99756        22.44786         1.49217
C         18.22974        24.71899         1.90573
C         16.93396        25.47606         1.87778
C         18.17798        27.42506         0.92988
C         16.93310        26.86571         1.30200
C         18.22348        28.72200         0.21273
C         16.92459        29.45806        -0.04958
C         18.22196        31.58905        -0.34712
C         16.98164        30.91388        -0.20686
C         18.23065        33.00457        -0.56971
C         17.06418        33.76179        -0.34650
C         18.20244        35.84840        -1.18573
C         16.96394        35.23393        -0.60857
C         18.21468        37.29184        -1.35845
C         16.93872        38.04253        -1.63818
C         18.25659        40.22650        -1.22301
C         16.99905        39.52860        -1.54374
C         18.24248        41.63257        -0.76025
C         17.02361        42.38201        -0.89330
C         18.27777        44.40037        -0.26830
C         17.04919        43.78370        -0.58587
C         18.33382        45.90702        -0.27690
C         17.02363        46.55528         0.12448
C         18.24478        48.52395         1.06225
C         17.00307        47.85402         0.61799
C         18.24361        50.08710         1.00450
C         16.98516        50.75239         0.58297
C         18.21000        52.77650        -0.16807
C         17.01737        52.11255         0.17213
C         18.27488        54.15865        -0.40373
C         21.05819         6.46738         0.13873
C         20.83557         7.80336        -0.27925
C         19.64124         8.50544        -0.01180
C         20.67524        10.57663        -0.87093
C         19.51000         9.85556        -0.39288
C         20.58586        12.01910        -0.92717
C         19.38733        12.68279        -0.73271
C         20.55695        14.95554        -0.89464
C         19.24588        14.17424        -0.91282
C         20.64111        16.29678        -0.25888
C         19.43780        16.79283         0.47965
C         20.63233        19.01775         0.81727
C         19.45931        18.15131         1.12098
C         20.66211        20.39649         1.36772
C         19.48643        21.03710         1.67159
C         20.73918        23.25187         1.64593
C         19.51751        22.48191         1.96418
C         20.71017        24.66883         1.49133
C         19.48293        25.39410         1.50508
C         20.67410        27.48700         0.91872
C         19.43474        26.76076         1.13499
C         20.69446        28.85382         0.54980
C         19.46960        29.52172         0.20904
C         20.68101        31.71237         0.06827
C         19.44966        30.87057        -0.14714
C         20.67163        33.03035        -0.67262
C         19.46482        33.70271        -0.84772
C         20.67053        35.74831        -1.53092
C         19.38664        35.10182        -1.21941
C         20.69574        37.29230        -1.51924
C         19.42007        37.97317        -1.33593
C         20.73143        40.06324        -0.68149
C         19.50791        39.44780        -1.23033
C         20.64615        41.40070         0.00404
C         19.43190        42.23819        -0.35631
C         20.73797        44.29830         0.18268
C         19.47819        43.65238        -0.14014
C         20.75986        45.71060         0.45061
C         19.54397        46.45603         0.43361
C         20.72791        48.26132         1.49359
C         19.50013        47.73181         1.00162
C         20.71816        50.39255         1.18709
C         19.50320        50.81467         0.72530
C         20.77739        52.66778        -0.46910
C         19.46965        51.98644        -0.17148
C         20.76696        54.10907        -0.97342
C         19.48965        54.86353        -0.62406
C         20.70794        57.02809        -0.63449
C         19.49783        56.25197        -0.61338
C         20.70899        58.35233        -0.27853
C         23.78275         3.91921         0.12151
C         22.58007         4.52033         0.41158
C         23.18917         6.37678        -1.08922
C         22.26096         5.79388        -0.15250
C         22.80843         7.60798        -1.65673
C         21.83795         8.46022        -1.09095
C         23.03591        10.66535        -1.88233
C         21.84183         9.88655        -1.25275
C         23.11803        12.08048        -1.35143
C         21.89432        12.74393        -0.78425
C         23.14272        14.91376        -0.82809
C         21.85923        14.22430        -1.05349
C         23.10584        16.41600        -0.80558
C         21.84458        16.93075        -0.12369
C         23.16647        18.89368         0.85218
C         21.87467        18.34495         0.34031
C         23.17461        20.33536         1.27263
C         21.90919        21.11807         1.29696
C         23.18376        23.25591         1.13198
C         21.92903        22.51318         1.40152
C         23.20988        24.72036         1.35171
C         21.93947        25.41376         1.32698
C         23.16287        27.57656         1.19983
C         21.90869        26.79998         1.14925
C         23.18797        28.91540         0.59501
C         21.95342        29.56446         0.35954
C         23.17910        31.58039        -0.29046
C         21.95967        30.92500        -0.03647
C         23.18133        33.01171        -0.61151
C         21.92457        33.71734        -0.82061
C         23.13447        35.85979        -1.04210
C         21.91741        35.06164        -1.17216
C         23.15402        37.31659        -1.27560
C         21.95614        38.00622        -1.22226
C         23.18249        40.04627        -0.48681
C         21.92996        39.38800        -0.80033
C         23.15797        41.42340        -0.15076
C         21.95305        42.15906        -0.02734
C         23.22444        44.17756         0.77869
C         21.94218        43.54414         0.25252
C         23.22115        45.68854         0.79740
C         22.00907        46.38773         0.73960
C         23.20020        48.62843         1.29487
C         21.97042        47.77068         1.13496
C         23.21331        50.08038         0.89066
C         22.01103        50.82936         0.70059
C         23.25584        52.78909        -0.04537
C         22.03495        52.09664         0.07115
C         23.22157        54.21038        -0.38893
C         22.03786        54.85514        -0.61004
C         23.27167        57.10684        -0.85395
C         21.99857        56.31709        -0.88438
C         23.18733        58.62977        -0.73609
C         21.98393        59.04699         0.12926
C         23.06869        61.27395         0.20851
C         21.90957        60.55364         0.17899
C         24.73629         4.55402        -0.71859
C         25.57546         6.40169        -2.19035
C         24.46964         5.76363        -1.33718
C         25.73640         7.89858        -1.95281
C         24.59362         8.71132        -2.21983
C         25.61196        10.69328        -1.37733
C         24.41222         9.99886        -1.77378
C         25.57841        12.07299        -1.19234
C         24.31562        12.76380        -1.21491
C         25.56973        14.94810        -1.09297
C         24.33306        14.22331        -1.00097
C         25.59147        16.30603        -0.68021
C         24.42128        16.96932        -0.30982
C         25.71160        18.99936         0.51983
C         24.46008        18.20067         0.50865
C         25.71603        20.33470         0.77826
C         24.49329        21.04514         1.21530
C         25.75750        23.22101         1.25870
C         24.47663        22.52375         1.01378
C         25.69308        24.64954         1.56259
C         24.41708        25.37980         1.39973
C         25.73567        27.52150         0.93974
C         24.48566        26.85395         1.39921
C         25.69523        28.84617         0.46064
C         24.42355        29.55076         0.30765
C         25.67122        31.53774        -0.65780
C         24.40155        30.87410        -0.18128
C         25.64698        33.01780        -0.37405
C         24.37640        33.68594        -0.70252
C         25.70043        35.80339        -1.19499
C         24.42207        35.15164        -0.77293
C         25.67397        37.30757        -1.48605
C         24.41085        38.00917        -1.15773
C         25.63511        40.12086        -0.97788
C         24.40220        39.33689        -0.73080
C         25.71776        41.45215        -0.33074
C         24.44585        42.12155         0.06120
C         25.76807        44.23701         0.47029
C         24.45295        43.63624         0.02326
C         25.78395        45.59097         0.97190
C         24.46682        46.36616         1.14947
C         25.74396        48.61574         0.84443
C         24.51148        47.87800         1.22002
C         25.71447        49.98232         0.69254
C         24.45410        50.72676         0.63459
C         25.70740        52.87856         0.23502
C         24.46909        52.11996         0.26742
C         25.72244        54.24301         0.01425
C         24.54072        54.91283        -0.64066
C         25.66433        57.11709        -0.16478
C         24.50811        56.40618        -0.47540
C         25.62949        58.54176        -0.03576
C         24.44445        59.27104        -0.16947
C         24.34470        60.62861         0.15824
C         26.86604         8.53603        -1.48250
C         28.06278        10.66585        -1.08820
C         26.86546         9.96166        -1.29514
C         28.10257        12.07636        -0.98819
C         26.81815        12.85172        -0.81432
C         28.16502        14.93687        -1.64473
C         26.78112        14.19025        -1.58814
C         28.12577        16.41416        -1.18174
C         26.92254        16.93429        -0.43538
C         28.20788        19.10879         0.14223
C         26.97511        18.30554         0.17787
C         28.22135        20.43913         0.54245
C         26.92152        21.19112         0.44137
C         28.21559        23.23561         1.17778
C         26.94687        22.54781         1.10110
C         28.22906        24.63530         1.20461
C         27.00556        25.41542         1.43833
C         28.17945        27.43188         0.61069
C         26.96609        26.81752         0.99139
C         28.17027        28.80518         0.24205
C         26.93110        29.51300         0.14075
C         28.16075        31.61344        -0.26038
C         26.94638        30.88740        -0.20986
C         28.20639        33.05572        -0.35051
C         26.93094        33.80348        -0.36719
C         28.27240        35.83459        -1.18246
C         26.94922        35.18751        -0.83593
C         28.18820        37.37285        -1.24330
C         26.99345        38.01216        -1.42719
C         28.12609        40.31232        -1.83364
C         26.87840        39.49199        -1.53116
C         28.06911        41.77727        -1.37445
C         26.91057        42.31551        -0.61240
C         28.31182        44.32127         0.07727
C         27.07569        43.48272         0.34290
C         28.34960        45.61234         0.87100
C         27.03111        46.36530         0.66882
C         28.31159        48.55880         0.77115
C         27.01213        47.85066         0.62994
C         28.27654        49.98418         0.27172
C         27.02342        50.75746         0.76034
C         28.25559        52.88050         0.45886
C         27.00152        52.12104         0.06735
C         28.18242        54.36396         0.72815
C         26.92234        55.02557         0.21209
C         26.88653        56.39356         0.12501
C         29.30146        12.78821        -0.91697
C         30.54659        14.89351        -0.79835
C         29.34622        14.20670        -1.00205
C         30.67866        16.31820        -0.78088
C         29.42822        17.11559        -0.92459
C         30.74449        19.12358         0.03919
C         29.44965        18.48989        -0.33146
C         30.65764        20.22460         1.07585
C         29.43797        21.10413         0.86176
C         30.68774        23.21497         1.28536
C         29.46215        22.49858         1.11754
C         30.67894        24.62456         1.15339
C         29.44834        25.33791         1.00238
C         30.65916        27.38735         0.38777
C         29.43617        26.72338         0.68782
C         30.65478        28.78243         0.06271
C         29.40322        29.47969         0.00879
C         30.61130        31.60108        -0.09249
C         29.39014        30.88696        -0.16684
C         30.57035        33.00912         0.07487
C         29.38476        33.77746        -0.16594
C         30.67724        36.05290        -0.37838
C         29.33563        35.33455        -0.16895
C         30.80742        37.31821        -1.22738
C         29.47192        38.17382        -0.96080
C         30.49943        40.37497        -1.86273
C         29.42630        39.61818        -1.49281
C         30.65231        41.84488        -1.63070
C         29.35623        42.55982        -1.34958
C         30.64931        44.65074        -0.83057
C         29.37725        43.85150        -0.61596
C         30.68918        45.90484         0.02424
C         29.56341        46.45428         0.57488
C         30.79623        48.63415         1.07122
C         29.50287        47.88797         0.83920
C         30.68964        50.12444         0.87758
C         29.53038        50.76381         0.59715
C         29.42716        52.21819         0.62777
C         31.87517        16.93863        -0.40033
C         33.18199        18.97542         0.27280
C         31.99301        18.31887        -0.02582
C         33.22674        20.35028         0.71353
C         31.97295        20.98560         1.21451
C         33.28574        23.22313         1.45817
C         31.96925        22.46860         1.42606
C         33.16531        24.74154         1.44950
C         31.89097        25.38084         1.07378
C         33.16358        27.33522         0.15461
C         31.89438        26.68638         0.58408
C         33.15571        28.79152        -0.22042
C         31.87230        29.51359        -0.07190
C         33.10597        31.66234         0.14574
C         31.86266        30.91541        -0.01723
C         33.01919        33.07226         0.50260
C         31.73285        33.57512         0.65679
C         33.07330        36.17361         0.44659
C         31.70061        35.70772         0.44870
C         33.06380        37.67603         0.29980
C         32.07459        38.09792        -0.77527
C         33.32400        40.27306        -0.81260
C         32.34190        39.31928        -1.29308
C         33.19023        41.66334        -0.83519
C         31.94808        42.43197        -1.07686
C         33.13325        44.51178        -0.41896
C         31.91041        43.78104        -0.73265
C         33.13081        45.91594        -0.24472
C         31.94167        46.66029         0.00069
C         31.97612        47.98744         0.39238
C         34.38972        21.10352         0.66195
C         35.76916        23.09499         0.77142
C         34.52959        22.50236         1.02038
C         36.16192        24.46252         1.03844
C         34.35760        25.57807         1.32081
C         35.70559        27.45812         0.49938
C         34.44591        26.73970         0.60178
C         35.68752        28.86961         0.28894
C         34.47377        29.57541        -0.33999
C         35.54565        31.82487         0.26877
C         34.32827        31.02118         0.10073
C         35.43292        33.22986         0.71561
C         34.20613        33.89293         0.71962
C         35.50753        36.05340         0.60241
C         34.17071        35.37810         0.70009
C         35.63735        37.50453         0.27682
C         34.41662        38.29939         0.05819
C         35.84761        40.29683        -0.45486
C         34.52417        39.59345        -0.34882
C         35.62120        41.76225        -0.17767
C         34.40419        42.39569        -0.41905
C         34.34197        43.81154        -0.30230
C         37.06215        25.30262         0.42446
C         38.13706        27.53061         0.69305
C         36.96478        26.76279         0.59289
C         38.09364        28.93902         0.77734
C         36.86321        29.60656         0.49129
C         38.01920        31.81300         1.02699
C         36.87211        31.09078         0.42735
C         37.95256        33.17793         1.25611
C         36.66281        33.89108         1.19340
C         37.97684        36.11777         1.28964
C         36.68084        35.39722         1.24329
C         38.02211        37.48761         1.06644
C         36.88874        38.25172         0.59210
C         36.93571        39.59674         0.33286
C         39.26963        29.70063         1.09447
C         40.39961        31.83650         1.67147
C         39.24146        31.08296         1.25788
C         40.35062        33.19384         1.81944
C         39.13347        33.93691         1.60040
C         39.13155        35.33589         1.60961
O         21.07198        19.14937        -0.59613
O         16.28047        37.38812        -2.80348
O         17.55028        28.66543        -1.10350
O         15.09685        33.70548         1.01667
O         17.65486        25.32724         3.13499
O         19.79009        16.97592         1.91323
O         15.28381        23.17672        -0.23575
O         16.41960        36.07170         0.47400
O         31.62076        39.75267        -2.40156
O         33.24855        23.98487         2.70454
O         35.82477        36.47001        -0.77478
O         23.78580        18.00193         1.81930
O         17.48778        18.05662         2.63357
O         25.60296        36.34777        -2.58442
O         25.28952        41.45167         1.07055
O         20.74505        36.51301        -2.76615
O         21.19508        14.79677        -2.22215
O          9.35021        29.84864        -0.76505
O         26.93338        47.03060        -0.63086
O         30.17677        19.43939        -1.25137
O         25.84388        40.03491        -2.43381
O         36.37780        34.65623         2.44967
O         27.02268        42.58913        -2.03938
O         23.77077        22.91891        -0.21679
O         30.00602        42.65365        -2.67270
O         18.81030        22.78712         3.22484
O         19.12298        40.13806        -2.49495
O         26.41370        25.12034         2.74987
O         33.09614        27.74405        -1.26146
O         18.82011        14.38235        -2.39654
O         27.19635        17.06991         0.99633
O          7.77573        32.29306        -1.03212
O         13.88904        20.65594        -0.52515
O         23.82567        27.51939         2.52031
O         25.17770        45.77971         2.32157
O         13.95689        44.79273        -2.24727
O         13.78154        31.22641        -1.27973
O         31.47717        34.71693         1.42440
O         23.96083        20.58834         2.49533
O         32.03123        21.52323         2.57594
O         23.96565        48.35016         2.50870
O         23.48472         8.06376        -2.80574
O         20.13386        51.77527        -1.46930
O         22.69794        56.64542        -2.15097
O         26.16695        33.48857         0.90150
O          9.66230        34.74812         1.19856
O         20.72139        49.45123         2.22347
O         26.43895        13.73760        -2.95948
O         14.46805        26.28609         2.75498
O         35.43510        25.11459         2.06915
O         28.71719        17.24267        -2.22575
O         23.72875        35.74900         0.36420
O         14.95606        39.94402        -2.69741
O         18.10568        49.35971         2.25021
O         36.49616        31.66263        -0.86805
O         14.00240        40.13737         0.44240
H         13.57500        40.77775         1.05367
O         23.01372        59.18549        -2.05214
H         22.69398        58.45536        -2.63376
O         26.77233        21.48609        -0.99267
H         25.94388        21.99990        -1.11433
O         27.19749        51.04113         2.17212
H         27.17221        50.19579         2.66806
O         18.07668        20.36072         3.42942
H         17.66483        19.51170         3.71810
O         30.62838        45.18517        -2.18421
H         30.44174        44.42600        -2.79034
O         25.99783        14.89695        -3.70718
H         26.86466        15.27507        -4.01266
O         22.11591        12.71420         0.68197
H         22.11541        11.77548         0.96770
O         28.25664        49.81131        -1.16285
H         27.55371        49.16861        -1.39664
O         34.78530        29.63847        -1.75673
H         34.46796        28.79352        -2.15170
O         28.67172        35.35967        -2.49065
H         28.01379        35.68432        -3.14252
O         31.10191        48.45551         2.50727
H         31.01495        47.49889         2.70901
O         26.73320        13.20810         0.59266
H         26.79328        12.38813         1.12553
O         28.54733        14.93204        -3.04269
H         29.05184        15.76945        -3.19748
O         25.66034        31.45075        -2.12472
H         25.66595        30.50234        -2.37306
O         29.34811        55.03859         0.24257
H         29.43350        54.85346        -0.71492
O         18.52854        46.28585        -1.68815
H         17.79162        45.89323        -2.20384
O         12.86887        28.53039        -0.96174
H         13.01206        29.35479        -1.48691
O         25.31083         6.16663        -3.57870
H         24.48142         6.64491        -3.80357
O         27.35523        42.89871         1.67313
H         26.55021        42.37535         1.92790
O         27.01307        51.91016        -1.36989
H         26.82927        52.76845        -1.80778
O         20.61112        32.12273         1.49033
H         20.76554        31.32380         2.03890
O         32.57246        38.21263         1.57484
H         31.58963        38.22718         1.53667
O         20.79956        54.06768        -2.42679
H         20.39683        53.20591        -2.68930
O         14.39567        42.46364        -3.15135
H         13.94860        43.31255        -3.38613
O         29.46295        38.38570         0.49325
H         29.13584        37.54601         0.91718
O         30.91075        37.00454        -2.61100
H         31.08684        37.84108        -3.09579
O         23.32279        43.74865         2.16475
H         24.00939        44.32156         2.59283
O         28.19766        40.36874        -3.28674
H         27.32929        40.71341        -3.59824
O         22.71840        10.77238        -3.30092
H         22.76716         9.86248        -3.67075
O         24.77142        54.69902        -2.08917
H         24.04447        55.18616        -2.55058
O         30.44378        19.52451         2.33174
H         30.73603        20.13770         3.04681
O         12.36460        29.99818         2.36263
H         11.64877        30.52712         2.77298
O         28.84791        35.74960         1.14096
H         29.45280        35.35591         1.81067
O         24.28086        44.00857        -1.37691
H         25.08951        43.75568        -1.87609
O         28.45390        45.28725         2.28132
H         27.99790        44.41951         2.42712
O         12.37366        37.41725        -2.66083
H         13.06877        37.16782        -3.30739
O         20.44832        41.07497         1.43928
H         20.82750        41.81011         1.96910
O         22.27918        58.57637         1.48687
H         21.57792        58.91403         2.08253
O         36.29765        40.24838        -1.85496
H         35.56851        40.59612        -2.41140
O         23.00817        16.85777        -2.20773
H         22.32165        16.28608        -2.63444
O         13.27616        16.13486         0.61698
H         13.27175        16.33604        -0.34124
O         12.44135        37.92677         0.97392
H         13.23437        38.50951         1.07406
O         10.11700        35.92359        -2.25891
H         10.79504        36.43349        -2.76945
O         17.62893        13.64164        -2.66650
H         17.96604        12.79120        -3.04145
H          4.87808        31.38232         1.56911
H          4.83718        33.78184         1.20106
H          7.34756        27.02426         1.86338
H          6.11865        29.24398         1.80118
H          6.00240        35.93072         0.58606
H          7.23258        38.07687        -0.13630
H          9.78987        22.75896         1.29569
H          8.57917        24.85859         1.62898
H          8.57244        40.20756        -0.32842
H          9.90966        42.32700        -0.64967
H         12.29009        18.33983         1.14396
H         10.99696        20.58742         1.06144
H         11.11215        44.34024        -0.60182
H         12.40301        46.31455         0.23823
H         14.76047        14.12550         0.39282
H         14.40044        16.49120         2.29552
H         13.61181        48.47704         0.47859
H         14.84338        50.56257         0.46430
H         17.39875         9.98553         0.10467
H         16.04091        12.02794        -0.06228
H         16.06313        52.65301         0.07585
H         17.34914        54.74734        -0.30442
H         20.29205         5.96424         0.74604
H         18.80649         7.99647         0.49131
H         18.55383        56.78676        -0.42146
H         19.74849        58.84681        -0.05764
H         24.03412         2.94757         0.56926
H         21.86657         4.04370         1.09861
H         23.03507        62.36594         0.33876
H         20.93313        61.05006         0.28738
H         25.71441         4.07334        -0.86739
H         26.53926         5.88746        -1.94807
H         26.54511        59.05950         0.28997
H         25.24610        61.19470         0.43707
H         27.78732         7.97013        -1.27823
H         29.01441        10.11289        -1.11176
H         28.18770        54.50114         1.84758
H         27.79917        56.96816         0.34080
H         30.24985        12.23620        -0.81466
H         31.43322        14.30366        -0.51416
H         31.59392        50.71087         1.10617
H         30.33280        52.78915         0.88895
H         32.77295        16.30688        -0.30635
H         34.14035        18.45528         0.11744
H         34.10103        46.42600        -0.14049
H         32.94331        48.51232         0.43979
H         35.30067        20.60621         0.29113
H         36.52480        22.45718         0.28319
H         36.49681        42.39228         0.04552
H         35.26250        44.36453        -0.06297
H         37.83431        24.91360        -0.25668
H         39.10711        27.02163         0.79109
H         38.98547        38.01023         1.17201
H         37.86113        40.15826         0.53594
H         40.21079        29.15779         1.26898
H         41.33912        31.29424         1.85293
H         41.25539        33.74853         2.10852
H         40.08451        35.86044         1.77921
