         280
 CSIRO Nanostructure Databank - Neutral Graphene Oxide Data Set
C         31.56862        32.76399         3.26976
C         31.05277        33.38490         2.32059
C         30.64834        35.92727         0.65057
C         30.48701        37.16147         0.43950
C         30.50023        40.24738        -0.28869
C         30.36473        41.47818        -0.59542
C         34.09130        30.10839         3.09559
C         33.11940        30.76589         3.70260
C         33.69379        32.73272         2.33472
C         32.82314        32.08393         3.36359
C         33.19980        33.17806         1.13460
C         31.74303        33.62010         0.96732
C         32.94246        35.86909         0.34319
C         31.76861        35.09762         0.63739
C         32.86059        37.27719         0.19496
C         31.61473        38.00129         0.22998
C         32.75737        40.31802         0.34863
C         31.54492        39.41189         0.03460
C         32.74716        41.71539        -0.30329
C         31.50177        42.32356        -0.66186
C         32.70797        44.37654        -1.01520
C         31.65861        43.71864        -0.97288
C         36.23964        27.54488         2.33415
C         35.74608        28.72901         1.47935
C         34.64298        29.62584         1.97320
C         35.57883        31.46732         0.49741
C         34.39466        30.65427         0.85427
C         35.36584        32.77327        -0.13575
C         34.07493        33.62398        -0.04861
C         35.36116        35.97642        -0.50273
C         34.31914        35.15523         0.27876
C         35.43791        37.44686        -0.14737
C         34.02244        38.09105        -0.35678
C         35.26450        40.31742        -0.27906
C         34.05404        39.54714         0.10169
C         35.21303        41.79646        -0.36755
C         33.98900        42.45311        -0.35847
C         35.26555        44.54327        -1.07870
C         34.02105        44.02267        -0.36563
C         35.54025        46.00974        -0.92831
C         38.33194        27.43232         1.01214
C         37.27384        27.00469         1.88897
C         38.20014        28.76108         0.69269
C         37.08446        29.59941         1.31103
C         38.00006        31.58057         0.00267
C         36.83826        30.89572         0.55289
C         37.86840        33.06188        -0.28125
C         36.45686        33.26526        -0.78468
C         37.79682        36.01111        -1.19825
C         36.43824        35.45711        -1.16024
C         37.82627        37.46189        -0.99601
C         36.45809        38.13233        -1.10220
C         37.70408        40.21486        -0.14934
C         36.48746        39.69591        -0.95133
C         37.72658        41.72879        -0.18861
C         36.50354        42.47521        -0.35581
C         37.83281        44.55517        -0.33615
C         36.54954        43.85945        -0.53061
C         37.92125        46.07622        -0.39857
C         36.57380        46.60272        -0.62410
C         40.73197        24.57421         0.36934
C         39.72729        25.22746         0.68206
C         40.59324        27.29948        -0.05754
C         39.20207        26.54866         0.15562
C         40.40846        28.73166        -0.52908
C         39.05040        29.37443        -0.40801
C         40.32448        31.61027        -0.76426
C         39.13073        30.88746        -0.34995
C         40.29824        33.02695        -0.89570
C         38.95373        33.68194        -1.21881
C         40.26929        35.95958        -1.27505
C         38.94903        35.24147        -1.22224
C         40.33016        37.50815        -1.21431
C         38.98914        38.14714        -0.91066
C         40.26008        40.34821        -0.45608
C         38.96896        39.61752        -0.72846
C         40.17042        41.70110         0.10036
C         38.96146        42.38307         0.04279
C         40.26607        44.55800         0.42940
C         38.91334        43.84674         0.50198
C         40.24594        46.02106         0.58145
C         39.02634        46.73166         0.31199
C         40.10642        48.72439         1.16083
C         39.13038        48.06558         0.68779
C         43.05630        24.50160        -0.97408
C         42.05885        25.13841        -0.05058
C         42.70348        27.22870        -1.55786
C         41.57320        26.40730        -0.92102
C         42.68279        28.70748        -1.40388
C         41.51289        29.45223        -0.87788
C         42.74975        31.63860        -1.20528
C         41.54307        30.91401        -0.96793
C         42.75892        33.03896        -1.05440
C         41.51463        33.71312        -0.91820
C         42.70757        35.79048        -0.21099
C         41.53464        35.20048        -0.99833
C         42.66952        37.31980        -0.03585
C         41.33189        38.05450        -0.16408
C         42.68428        40.27264        -0.06006
C         41.48794        39.56314        -0.30072
C         42.66900        41.63223         0.26446
C         41.39067        42.31220         0.74708
C         42.71070        44.51194         0.81670
C         41.41648        43.82997         0.58274
C         42.68280        45.98338         1.13834
C         41.38615        46.71589         1.07211
C         42.63193        48.59089         1.83680
C         41.35694        48.12691         1.36429
C         43.91723        25.14480        -1.57757
C         45.22588        27.29186        -1.39823
C         44.08370        26.54322        -2.05839
C         45.17003        28.64337        -1.14374
C         43.97939        29.43060        -1.56607
C         45.38350        31.61576        -1.49692
C         44.00734        30.92328        -1.57781
C         45.31696        33.08766        -1.08662
C         44.02192        33.84503        -1.34230
C         45.21001        35.89864        -0.54769
C         44.03822        35.23729        -0.73069
C         45.24361        37.30091        -0.02417
C         43.95245        38.08059         0.04535
C         45.23389        40.29930         0.00126
C         43.98058        39.54484        -0.40132
C         45.20455        41.65077         0.18547
C         43.92678        42.46294         0.12128
C         45.22171        44.44850         1.07463
C         43.92822        43.62714         1.16946
C         45.16445        45.93075         1.45174
C         43.86875        46.51039         1.99155
C         43.72523        48.01431         1.92546
C         47.40380        27.25587        -0.31167
C         46.42380        26.71290        -0.84783
C         47.24290        28.52602         0.50152
C         46.18893        29.37238        -0.32027
C         47.75453        31.44023        -0.52784
C         46.34037        30.85364        -0.54531
C         47.75582        32.98742        -0.55645
C         46.49165        33.73916        -0.85809
C         47.74096        35.93499        -0.31491
C         46.53887        35.26303        -0.97573
C         47.79893        37.44142        -0.49480
C         46.51762        38.08631         0.02483
C         47.70080        40.25748         0.05712
C         46.50684        39.58453         0.02336
C         47.77463        41.74084         0.10221
C         46.45547        42.45161         0.26988
C         47.10850        44.76889        -0.54285
C         46.26541        43.93210         0.14042
C         46.95472        46.17416        -0.21801
C         46.11800        46.61444         0.58613
C         49.21509        28.94796         2.08222
C         48.50216        29.27216         0.84937
C         49.59136        31.59125         1.40357
C         48.72203        30.78113         0.51135
C         49.57800        33.11659         1.33301
C         48.83519        33.74312         0.15789
C         50.16148        35.86607         0.36921
C         48.78384        35.24381         0.19812
C         50.12645        37.38171         0.44546
C         48.99436        38.08752         0.16163
C         50.25218        40.26673         0.28265
C         48.94098        39.54510         0.53702
C         50.29504        41.63825        -0.10842
C         49.06264        42.36477        -0.38178
C         50.40929        44.10232        -1.28228
C         49.10164        43.61536        -1.02400
C         50.09726        29.61589         2.64947
C         51.20617        31.95250         3.08091
C         50.31361        31.01804         2.46049
C         51.46780        33.15579         2.89725
C         51.02289        33.75199         1.51520
C         52.35662        35.94484         1.48298
C         50.93530        35.27231         1.59118
C         52.31382        37.17516         1.23684
C         51.34981        38.09622         0.77561
C         52.59855        40.28593         0.43638
C         51.42718        39.49679         0.55660
C         52.70671        41.46382         0.01960
C         51.60357        42.26962        -0.34117
C         51.47641        43.52806        -0.94778
O         46.70655        35.54724        -2.37605
O         45.65262        30.38140         0.62914
O         47.31896        42.19046         1.43652
O         42.21745        28.02921        -2.66968
O         43.93923        33.97849        -2.87652
O         49.41274        29.66619        -0.16494
O         46.00828        37.44522         1.23130
O         43.08903        45.51793        -0.19609
O         36.27595        34.21465        -1.78100
O         39.58272        40.33426        -1.81599
O         41.20783        35.57536        -2.36467
O         38.58642        43.79892         1.85059
O         45.75478        44.96144         2.34969
O         33.29749        30.79130         0.34229
O         43.96193        30.15301        -2.84117
O         48.01214        44.32648        -1.48514
O         35.04503        39.86752         1.12019
O         49.03076        33.35499        -1.22770
O         43.23467        37.74773         1.26522
O         38.36936        45.25509        -1.51778
O         35.38265        28.26347         0.20404
H         34.53685        27.77403         0.25825
O         36.06401        37.82219        -2.45280
H         36.07214        38.67207        -2.95940
O         33.35019        33.57246        -1.27145
H         32.99030        32.66712        -1.38435
O         43.92700        43.03266        -1.21869
H         43.35120        43.82945        -1.24874
O         48.76979        33.56126         2.44907
H         49.15002        33.19269         3.27622
O         44.27736        35.28552        -3.26744
H         45.28927        35.35317        -3.08824
O         37.62935        39.73694         1.21768
H         37.18064        40.41339         1.76939
O         45.96393        31.64637        -2.80418
H         45.46507        31.02161        -3.38056
O         40.85806        25.83816        -2.02745
H         40.95769        26.44579        -2.79470
O         38.49653        26.34075        -1.03848
H         39.07107        25.81576        -1.64633
O         48.24336        31.01387        -1.81139
H         48.97145        31.62105        -2.07436
O         50.35497        35.69550         2.78275
H         50.68784        35.12035         3.50909
O         35.03467        32.61801         2.56776
H         35.18535        32.17537         3.42900
O         33.72369        38.19618        -1.76835
H         33.83264        37.31233        -2.18182
O         41.23155        42.04919         2.17480
H         40.44901        42.57263         2.47253
O         35.17232        44.19481        -2.45028
H         35.93073        44.59046        -2.92899
O         43.65939        46.05813         3.31495
H         44.47829        46.19703         3.83572
O         32.65999        40.57234         1.76878
H         33.57684        40.53920         2.13222
O         51.86980        33.33189         0.50911
H         52.57622        34.00351         0.37886
O         42.77953        25.53851         1.09804
H         43.11432        24.73647         1.55068
O         38.36131        29.08711        -1.66745
H         38.85072        29.53424        -2.39032
O         44.03886        39.45599        -1.85193
H         44.02390        40.36519        -2.22100
O         50.92052        35.48068        -0.79675
H         50.30699        35.36039        -1.55339
O         42.53335        35.21821         1.11005
H         43.03707        35.78791         1.73699
O         31.08165        32.90498        -0.05186
H         31.17067        31.94702         0.13932
O         38.68086        33.24313        -2.56758
H         37.85083        33.67890        -2.86861
O         47.94098        37.76387        -1.89519
H         47.51696        37.00017        -2.40128
O         34.05200        44.47717         0.96879
H         33.22221        44.22270         1.42224
O         41.14932        27.51642         1.25231
H         41.27840        26.65109         1.70336
O         34.85132        35.14164         1.62018
H         35.21888        36.03744         1.82575
O         40.72257        38.01110        -2.49947
H         41.14695        37.27071        -2.99696
O         44.17281        26.63686        -3.46011
H         43.57409        27.36230        -3.75871
O         37.93269        33.80810         0.96211
H         37.24663        33.45994         1.57334
O         48.77766        39.55410         1.99911
H         49.44161        38.95009         2.39508
O         40.65121        37.87546         1.10527
H         41.31384        38.04045         1.81553
O         35.87342        37.55850         1.21840
H         36.52775        38.30020         1.31994
O         46.64805        28.19294         1.73771
H         45.80783        27.71556         1.58300
O         36.57647        40.27699        -2.26479
H         37.52145        40.32558        -2.53433
O         43.80135        43.07210         2.47194
H         44.33587        43.61767         3.09124
O         37.48088        30.01213         2.63766
H         37.63109        29.19803         3.16742
