         324
 CSIRO Nanostructure Databank - Neutral Graphene Oxide Data Set
C          1.46446         3.43976        -2.22407
C          0.28259         4.14339        -2.26237
C          1.32918         6.21616        -1.46335
C          0.21663         5.52071        -1.90856
C          1.30967         7.62369        -1.11698
C          0.10867         8.33330        -1.02232
C          1.18653        10.49799        -0.60630
C          0.05246         9.73329        -0.83569
C          1.13258        11.93529        -0.43701
C          0.01922        12.70133        -0.77999
C          1.03615        14.86751        -0.19440
C         -0.04304        14.11248        -0.62388
C          1.01257        16.31379        -0.05057
C         -0.14447        17.02676         0.21763
C          1.03314        19.18976         0.13529
C         -0.13167        18.43945         0.28663
C          0.97622        20.66969         0.03866
C         -0.11764        21.43708         0.62575
C          1.12463        23.55755         0.42698
C         -0.05769        22.79414         0.73283
C          1.12793        24.99980         0.59678
C          0.07029        25.69421         1.17061
C          1.36992        27.75593         1.43562
C          0.19907        27.03340         1.60841
C          1.65985        28.87900         2.29473
C          3.88682         3.41937        -1.72974
C          2.67783         4.08122        -1.82574
C          3.90406         6.27566        -1.34524
C          2.61156         5.48817        -1.37584
C          3.77068         7.75499        -1.29106
C          2.55995         8.35338        -1.00471
C          3.68805        10.60896        -0.63163
C          2.49074         9.74082        -0.37215
C          3.69230        11.94725        -0.06014
C          2.31289        12.65122         0.09894
C          3.58470        14.90972         0.16142
C          2.27963        14.15357         0.18194
C          3.58782        16.34819        -0.27757
C          2.25894        17.08071        -0.28154
C          3.52302        19.24567        -0.04219
C          2.29162        18.54376        -0.07769
C          3.56616        20.69091        -0.02291
C          2.30274        21.43391        -0.15224
C          3.57005        23.55670        -0.04548
C          2.31682        22.88069         0.11518
C          3.53602        25.02003        -0.28674
C          2.28486        25.76856         0.09934
C          3.70386        27.97481         0.37840
C          2.38864        27.25327         0.50209
C          3.95926        29.19166         1.38067
C          2.87225        29.48401         2.33697
C          6.17677         3.30411        -1.01089
C          5.14439         4.08704        -1.50049
C          6.40250         6.40103        -1.49710
C          5.16980         5.58979        -1.90195
C          6.33698         7.87749        -1.42440
C          4.99699         8.56707        -1.45114
C          6.17069        10.70425        -0.58893
C          4.93858        10.03932        -1.14128
C          6.19012        12.20678        -0.69931
C          4.88737        12.80726        -0.18722
C          6.10828        14.92818        -0.12413
C          4.83963        14.15585        -0.03099
C          6.08968        16.41717        -0.03176
C          4.80391        17.13919        -0.04512
C          6.02681        19.24363         0.35172
C          4.77306        18.51448         0.01717
C          6.03356        20.74311         0.36493
C          4.75683        21.42581         0.05998
C          6.08260        23.51326        -0.50557
C          4.77233        22.85128        -0.09256
C          6.12413        25.01613        -0.30300
C          4.83759        25.75274        -0.38568
C          6.03328        27.85759        -0.44348
C          4.86971        27.21667        -0.13767
C          6.37388        29.60860         0.85584
C          5.30786        29.58955         1.77090
C          8.58891         3.42925        -0.12863
C          7.55895         3.71279        -0.97926
C          8.81537         6.45423        -0.79238
C          7.66394         5.86803        -1.45582
C          8.79552         7.84416        -0.56997
C          7.58115         8.59885        -0.94792
C          8.68797        10.70658        -0.03403
C          7.45117         9.97105        -0.37430
C          8.61577        12.08907         0.21567
C          7.39852        12.83618        -0.04453
C          8.49606        14.89353         0.75693
C          7.33826        14.17369         0.21609
C          8.49093        16.40692         0.77441
C          7.30852        17.15531         0.33872
C          8.56184        19.25444         0.56746
C          7.32877        18.53018         0.33902
C          8.55969        20.72145         0.52922
C          7.32761        21.46054         0.28016
C          8.54855        23.58541         0.09460
C          7.34099        22.83256         0.01299
C          8.58775        24.97529        -0.17821
C          7.32355        25.68348        -0.37262
C          8.62872        27.92609        -0.46198
C          7.33405        27.16048        -0.60203
C          8.63594        29.45024        -0.13410
C          7.73786        29.74119         1.05891
C         10.99173         3.50151         0.24653
C          9.84434         4.19005        -0.11617
C         11.02621         6.35449         0.20036
C          9.89517         5.65353        -0.28918
C         11.09494         7.77285         0.18034
C          9.94661         8.54000        -0.12216
C         11.07225        10.67018         0.51918
C          9.93079         9.98891         0.09364
C         10.94330        12.02504         1.18140
C          9.77708        12.80085         0.64110
C         11.00493        14.92874         0.84558
C          9.78697        14.19234         0.76763
C         10.97564        16.34874         0.78562
C          9.77814        17.10383         0.76206
C         11.04611        19.20377         1.14152
C          9.75930        18.52891         0.71479
C         11.02573        20.71985         0.94188
C          9.75190        21.41817         0.64605
C         11.06145        23.55296         0.18681
C          9.77342        22.93087         0.69507
C         11.07404        24.95607        -0.05893
C          9.82892        25.69667        -0.15933
C         11.08483        27.81935        -0.25883
C          9.87414        27.13269        -0.23099
C         11.16836        29.26900        -0.13873
C         10.01758        29.99853         0.07314
C         13.41877         3.45671         0.75293
C         12.23157         4.14594         0.55805
C         13.45392         6.33093         1.12236
C         12.16054         5.60360         0.77537
C         13.57056         7.78993         0.86171
C         12.38648         8.47119         0.34264
C         13.57839        10.68300         1.02119
C         12.38804        10.03874         0.47196
C         13.44917        12.04698         1.68408
C         12.23609        12.81293         1.18484
C         13.54355        14.87570         0.87796
C         12.25896        14.17087         0.95169
C         13.54140        16.27637         0.39578
C         12.21502        17.07348         0.42649
C         13.47320        19.19456         0.29852
C         12.26918        18.52278         0.54527
C         13.52483        20.63086         0.29911
C         12.30400        21.41828         0.58711
C         13.50764        23.49553        -0.05020
C         12.26292        22.83687         0.15372
C         13.54404        24.90543        -0.14060
C         12.32779        25.61355        -0.18660
C         13.61629        27.81083        -0.53852
C         12.33044        27.06490        -0.45093
C         13.64120        29.28738        -0.38920
C         12.43222        29.95224        -0.17602
C         15.91813         3.40131         1.06713
C         14.66461         4.13594         0.99044
C         15.93621         6.23700         1.32300
C         14.67357         5.52549         1.10710
C         15.97484         7.73345         1.40654
C         14.74076         8.49011         1.07368
C         16.00426        10.60953         1.44313
C         14.78206         9.95231         1.11903
C         16.07476        12.07856         1.62459
C         14.76349        12.85424         1.67760
C         16.00846        15.02306         1.18194
C         14.72856        14.27050         1.22623
C         16.02180        16.39135         0.61424
C         14.77051        17.05580         0.38220
C         15.92497        19.14804        -0.12927
C         14.71343        18.44768         0.12164
C         15.92526        20.54666        -0.21650
C         14.71861        21.30947         0.02783
C         15.98784        23.42907        -0.08319
C         14.74664        22.75634        -0.04129
C         16.13300        24.86415        -0.27050
C         14.86073        25.60775        -0.06793
C         16.11060        27.75274        -0.70119
C         14.88775        27.09738        -0.21521
C         16.05899        29.17505        -0.90221
C         14.87907        29.92063        -0.57288
C         18.42168         3.37590         1.06182
C         17.14459         4.03583         1.04710
C         18.44985         6.26761         0.84327
C         17.16521         5.51141         0.90875
C         18.46002         7.73264         1.10478
C         17.28087         8.42090         1.27017
C         18.58666        10.62841         1.28036
C         17.26058         9.87012         1.52845
C         18.49368        12.06871         0.95271
C         17.32582        12.76777         1.20919
C         18.51597        14.91503         0.56546
C         17.33754        14.24575         1.14705
C         18.47930        16.31234         0.31005
C         17.22247        17.02374         0.31668
C         18.47291        19.11825        -0.31096
C         17.17549        18.34782        -0.41696
C         18.43691        20.55761        -0.63580
C         17.16627        21.25758        -0.30529
C         18.93192        23.63200        -0.56514
C         17.13449        22.59013         0.05492
C         18.56886        24.90344        -1.04790
C         17.29676        25.55328        -0.69819
C         18.34128        27.64769        -1.66766
C         17.24570        26.98681        -1.00106
C         18.30440        29.06803        -1.85707
C         17.19313        29.82064        -1.41145
C         19.61400         4.06720         1.03227
C         20.89112         6.21219         1.03298
C         19.70085         5.49725         0.97909
C         20.90577         7.62690         0.95855
C         19.74271         8.40282         0.99387
C         20.82721        10.53785         0.29820
C         19.75884         9.84658         0.85214
C         20.80347        11.94188         0.14749
C         19.68650        12.71860         0.45309
C         20.82942        14.85169        -0.18484
C         19.68195        14.16556         0.26866
C         20.83295        16.23416        -0.32276
C         19.67210        16.98764        -0.08955
C         20.91766        19.18700        -0.31275
C         19.66875        18.44252        -0.25952
C         20.96765        20.50731        -0.61801
C         19.75183        21.27378        -0.94869
C         20.66212        23.32051        -2.16976
C         19.85304        22.76546        -1.16468
C         20.54672        24.67923        -2.47061
C         19.51207        25.48452        -1.94476
C         20.44711        27.59030        -2.91037
C         19.43483        26.91513        -2.21303
C         20.41940        28.98591        -3.05922
C         19.37263        29.71987        -2.53289
O          2.91911        16.62275        -1.53821
O         18.29094        23.16217         0.58349
O          3.57264        29.34762        -0.02102
O         17.68585         5.94820        -0.39622
O          8.09947        27.60730        -1.79101
O          4.91968         9.56811        -2.52888
O          2.96822        12.04723         1.23977
O          5.90392        19.97805         1.63030
O          3.37741         5.68019        -0.12566
O         12.75739        16.51371        -0.82368
O         12.66268         9.34172        -0.79279
O          6.02666        29.25076        -0.47619
O          4.06558        25.38266        -1.61157
O          8.21133        15.62335         2.00556
O          7.86599         4.61028        -2.02194
O         11.82717        21.35781         2.01901
O         18.91915        20.73640        -2.03253
O         12.98481        27.36786        -1.78100
O         15.95350         6.91028         2.63871
O          1.43446        21.09706        -1.28378
O         15.51902        12.61499         2.90517
O          6.27123        15.70134        -1.37210
O          1.89446        26.83543        -0.80677
O         16.83882        14.89094         2.37287
O         12.47370         5.99240         2.16307
O          7.27052         8.51656        -2.37434
O          2.88116        14.67977         1.41967
O         14.92658        26.51368         1.12369
O         18.13101        10.30159         2.62857
O          6.45532        10.13496         0.72167
O          9.74401        23.27015         2.13277
H         10.49380        22.77164         2.53940
O          8.16864        30.16983        -1.29545
H          7.92458        29.50002        -1.97855
O          2.50577         9.41894         1.06787
H          2.57817        10.28053         1.55117
O          6.25509        12.49908        -2.11873
H          6.30663        13.47301        -2.23606
O          6.11603        23.35076        -1.96390
H          5.39866        23.92589        -2.32379
O         10.56383        11.75393         2.57664
H         11.39846        11.64738         3.09802
O          5.04440         5.64947        -3.34190
H          5.90648         5.39225        -3.73162
O         11.12274        18.95032         2.57524
H         11.62202        19.70643         2.96494
O         13.16638        11.74828         3.09235
H         14.03405        11.82887         3.56748
O         17.08441        17.98026        -1.84518
H         16.19219        17.60036        -1.99437
H          1.49256         2.38050        -2.51720
H         -0.63960         3.64271        -2.58861
H         -0.75309         6.02853        -2.00442
H         -0.84497         7.80073        -1.14112
H         -0.93718        10.21232        -0.86574
H         -0.86763        12.20195        -1.19421
H         -0.97501        14.62058        -0.90945
H         -1.09472        16.49581         0.36875
H         -1.08794        18.95537         0.44925
H         -0.98865        20.90290         1.03126
H         -0.93314        23.31680         1.13979
H         -0.84625        25.16329         1.45911
H         -0.59690        27.45330         2.24060
H          0.88025        29.17774         3.01130
H          3.90349         2.32516        -1.85400
H          3.06847        30.25066         3.10117
H          5.92138         2.29578        -0.64566
H          5.49528        29.80711         2.83177
H          8.48115         2.62792         0.61754
H          8.15924        30.02661         2.03207
H         10.94738         2.40480         0.32632
H         10.08778        31.08737         0.21448
H         13.42962         2.36262         0.63791
H         12.42668        31.04831        -0.08159
H         15.87308         2.30236         1.10774
H         14.93309        31.01935        -0.57056
H         18.43976         2.27671         1.10572
H         17.18814        30.91183        -1.54803
H         20.55696         3.50071         1.06622
H         21.84769         5.67436         1.10549
H         21.88279         8.12909         0.91807
H         21.72397         9.99284        -0.02804
H         21.70644        12.41747        -0.25641
H         21.75159        14.30147        -0.41123
H         21.75306        16.73018        -0.65925
H         21.85227        18.66420        -0.06417
H         21.92488        21.04736        -0.56999
H         21.40257        22.70059        -2.69338
H         21.24916        25.11028        -3.19597
H         21.29225        27.03379        -3.33627
H         21.23397        29.48994        -3.59731
H         19.33767        30.81159        -2.65657
