         658
 CSIRO Nanostructure Databank - Neutral Graphene Oxide Data Set
C          5.89846        31.73817        -0.55588
C          5.85746        33.10575        -0.51494
C          8.32570        27.47401         0.06185
C          8.31308        28.84442        -0.07940
C          7.10722        29.58609        -0.30954
C          8.29513        31.69235         0.11814
C          7.09487        30.97391        -0.28094
C          8.18220        33.14088         0.34482
C          7.00460        33.89350        -0.13032
C          8.25530        36.03719         0.01877
C          7.03321        35.27546        -0.14909
C          8.29341        37.45169         0.00678
C         10.72403        23.20455         0.52927
C         10.72275        24.58128         0.72990
C          9.53656        25.36254         0.44890
C         10.75754        27.50388         0.59633
C          9.53687        26.74342         0.35758
C         10.78871        28.86772         0.45098
C          9.61895        29.60111        -0.16289
C         10.73835        31.75761         0.52161
C          9.50258        31.03909         0.28761
C         10.74215        33.15166         0.43301
C          9.50568        33.91882         0.42948
C         10.70487        36.05705        -0.04857
C          9.49396        35.34785         0.07967
C         10.72956        37.45299         0.11823
C          9.50281        38.14669         0.16396
C         10.81324        40.33052         0.22301
C          9.47793        39.63770         0.41639
C         10.82097        41.71846         0.07085
C         13.30306        18.95124        -0.01478
C         13.23567        20.30490         0.43052
C         12.02922        20.99532         0.45352
C         13.20879        23.18663         1.16909
C         11.87452        22.38696         0.89793
C         13.16709        24.62696         0.95718
C         11.96327        25.29473         0.96193
C         13.24472        27.50995         1.02282
C         11.92808        26.78476         1.22443
C         13.22002        28.92548         1.00300
C         12.00395        29.62930         0.72328
C         13.22758        31.80498         0.91138
C         11.98109        31.03306         0.68553
C         13.25209        33.26725         0.54416
C         11.98088        33.85525         0.05724
C         13.24421        36.06300        -0.55899
C         11.95219        35.30585        -0.29454
C         13.28453        37.44821         0.03312
C         12.02675        38.12489         0.52988
C         13.26908        40.30990         0.19687
C         12.02973        39.61363         0.26772
C         13.28120        41.73794         0.15467
C         12.03529        42.46728         0.05578
C         13.23619        44.66470         0.01687
C         12.02576        43.85910        -0.12661
C         13.32364        46.05170        -0.61067
C         15.79058        14.65571        -0.83396
C         15.74046        16.12981        -0.45276
C         14.55430        16.85369        -0.46386
C         15.77209        18.94841        -0.00033
C         14.52208        18.24990        -0.14242
C         15.79218        20.34185         0.35832
C         14.51839        20.96458         0.80440
C         15.73479        23.23398         0.79633
C         14.51115        22.45401         1.09694
C         15.69225        24.59212         0.63686
C         14.39841        25.35179         0.47386
C         15.71593        27.45481         0.98980
C         14.45648        26.79278         0.94618
C         15.75633        28.88064         1.38708
C         14.46204        29.67265         1.29308
C         15.71708        31.83510         0.82505
C         14.52963        31.12012         0.99716
C         15.74132        33.21993         0.41345
C         14.52165        33.96088         0.22455
C         15.77269        36.00235        -0.53737
C         14.49695        35.27751        -0.21029
C         15.75239        37.47082        -0.16647
C         14.50743        38.15006         0.02219
C         15.73825        40.29797         0.02082
C         14.51168        39.59097         0.15142
C         15.73442        41.73567         0.01115
C         14.51927        42.42997         0.11556
C         15.79433        44.58652        -0.32132
C         14.53361        43.90755         0.17679
C         15.82656        46.07524        -0.11806
C         14.62371        46.78936        -0.32621
C         15.90386        48.87526        -0.43316
C         14.66180        48.17976        -0.42504
C         15.95812        50.28553        -0.59834
C         18.34412        10.40841        -0.90438
C         18.26424        11.83027        -0.69795
C         17.05094        12.44798        -0.48177
C         18.24692        14.62190        -0.20756
C         16.93417        13.89320        -0.09489
C         18.17893        16.04342         0.16488
C         16.95986        16.81486        -0.17790
C         18.27860        18.93448        -0.07996
C         16.98052        18.21504        -0.09962
C         18.23011        20.45198        -0.18721
C         16.98106        21.06926         0.42700
C         18.18244        23.21101         0.64661
C         16.98711        22.48822         0.65399
C         18.19797        24.63422         0.59830
C         16.93024        25.35961         0.22076
C         18.15620        27.52572         0.63758
C         16.91569        26.80538         0.67531
C         18.24558        28.88523         0.86483
C         17.04492        29.63956         1.26664
C         18.25484        31.76702         0.46927
C         17.02276        31.14577         1.03071
C         18.22510        33.18007         0.16502
C         16.99569        33.89566         0.16730
C         18.23516        36.01295        -0.15540
C         17.01642        35.28838        -0.09895
C         18.24063        37.44587        -0.26993
C         16.97627        38.17868        -0.20311
C         18.18666        40.38944        -0.49382
C         16.96353        39.59068        -0.12084
C         18.21956        41.75077         0.17586
C         16.99128        42.47141         0.11876
C         18.15022        44.60223         0.79031
C         17.00121        43.86250         0.18009
C         18.31040        46.03100         0.30433
C         17.07152        46.75460        -0.01603
C         18.44903        48.79924        -0.47748
C         17.10849        48.14171        -0.25028
C         18.41634        50.30746        -0.35466
C         17.17893        51.00408        -0.49167
C         18.35665        53.13105        -0.22054
C         17.17457        52.42638        -0.44011
C         18.34989        54.62123         0.03776
C         20.95130         6.24031        -1.15693
C         20.85932         7.65258        -1.10121
C         19.64366         8.32768        -1.14689
C         20.79539        10.53750        -1.05326
C         19.56410         9.75488        -1.01384
C         20.71170        11.97442        -1.00803
C         19.50863        12.59635        -0.73637
C         20.73004        14.74397        -0.23735
C         19.45876        14.02156        -0.44028
C         20.72813        16.01585         0.34358
C         19.44638        16.72494         0.53800
C         20.69062        18.88617         0.98650
C         19.51881        18.20490         0.31058
C         20.74250        20.35736         0.71607
C         19.56122        21.09728         0.24559
C         20.62834        23.20766         1.36604
C         19.50940        22.54985         0.58606
C         20.65968        24.66578         0.94210
C         19.40665        25.31270         0.60467
C         20.66904        27.46432         0.11244
C         19.37351        26.75405         0.27119
C         20.73575        28.91050         0.33270
C         19.55584        29.64681         0.90971
C         20.59861        31.67794        -0.34865
C         19.41959        31.04937         0.34843
C         20.67678        33.16821        -0.15099
C         19.46069        33.87626        -0.03732
C         20.71173        36.00610        -0.11365
C         19.47138        35.30513        -0.09987
C         20.70730        37.43235        -0.15938
C         19.47524        38.13151        -0.30810
C         20.76771        40.31462        -0.02332
C         19.49514        39.60598        -0.43280
C         20.66198        41.65023         0.65332
C         19.41841        42.44625         0.50778
C         20.64111        44.55444         1.19367
C         19.42428        43.81177         0.79181
C         20.74367        46.01218         0.86025
C         19.51082        46.68824         0.45903
C         20.84863        48.83006         0.16552
C         19.50753        48.20505         0.48535
C         20.86845        50.31563         0.13250
C         19.61028        51.02144        -0.14331
C         20.82185        53.21068         0.28848
C         19.57360        52.43732        -0.06881
C         20.83720        54.60193        -0.30650
C         19.60870        55.29962        -0.44589
C         20.79939        57.24493        -1.32003
C         19.58771        56.59463        -0.93773
C         20.79637        58.55125        -1.85241
C         23.53286         3.51208        -1.14713
C         22.27773         4.16872        -1.11097
C         23.43191         6.34850        -1.51162
C         22.18265         5.56187        -1.18843
C         23.39685         7.77473        -1.03539
C         22.08939         8.43858        -0.71266
C         23.26259        10.64041        -1.20706
C         22.02925         9.89962        -1.08178
C         23.24060        12.05805        -1.23379
C         21.93362        12.80579        -1.31792
C         23.19934        14.79833        -0.35729
C         21.96112        14.10940        -0.55901
C         23.22597        16.06095         0.24598
C         21.98968        16.66733         0.82511
C         23.18852        18.89710         0.80347
C         21.99879        18.17656         0.72610
C         23.16422        20.31975         1.02448
C         21.94147        21.03404         0.99965
C         23.13013        23.16887         1.38667
C         21.96355        22.48739         1.18386
C         23.10865        24.65282         1.32598
C         21.85496        25.33178         0.89900
C         23.20568        27.39911         0.13155
C         21.92436        26.65923         0.23545
C         23.20628        28.87150        -0.02959
C         21.94132        29.60394         0.09362
C         23.12070        31.67748        -0.64930
C         21.90708        30.99159        -0.09703
C         23.14938        33.16531        -0.36575
C         21.92426        33.85725        -0.19957
C         23.19084        35.98906         0.03831
C         21.94355        35.28827        -0.07628
C         23.18362        37.38493         0.18159
C         21.95889        38.12428         0.06391
C         23.12114        40.17567         0.87469
C         21.95516        39.50942         0.27173
C         23.20350        41.66734         0.69328
C         21.90984        42.31317         1.14701
C         23.19057        44.51288         0.96630
C         21.92057        43.78987         1.37335
C         23.18947        45.94971         1.51824
C         21.96037        46.65974         0.93336
C         23.34320        48.81582         0.73416
C         22.12143        48.05558         0.44640
C         23.22549        50.30801         0.96071
C         22.03374        50.99370         0.33475
C         23.33711        53.24230         0.11995
C         22.07983        52.43203        -0.12318
C         23.31937        54.54150        -0.33921
C         22.05755        55.22003        -0.62310
C         23.23898        57.18041        -1.60639
C         22.04447        56.55195        -1.15702
C         23.23011        58.46208        -2.17266
C         21.98871        59.18070        -2.26449
C         23.18952        61.11751        -3.15395
C         21.99374        60.50914        -2.77401
C         24.72256         4.21081        -1.17580
C         25.88598         6.36984        -1.01965
C         24.73497         5.65072        -1.18593
C         25.89102         7.85081        -0.73088
C         24.55672         8.51344        -1.01034
C         25.71324        10.61682        -1.60160
C         24.49916         9.93732        -1.17231
C         25.70097        12.15069        -1.59435
C         24.44251        12.81552        -1.19230
C         25.68646        14.89949        -0.68212
C         24.44805        14.15784        -0.76132
C         25.71276        16.16812        -0.14960
C         24.53090        16.69949         0.63009
C         25.64735        18.91684         0.86696
C         24.47592        18.21794         0.71952
C         25.69743        20.33588         1.15615
C         24.39835        20.95694         1.62176
C         25.64796        23.19862         0.94451
C         24.47165        22.51577         1.63839
C         25.66331        24.55965         0.88644
C         24.41778        25.34463         1.09364
C         25.71663        27.49395         0.46271
C         24.43168        26.80032         0.72983
C         25.68304        28.83801        -0.15364
C         24.40392        29.52207        -0.19979
C         25.63181        31.69765        -0.73641
C         24.40152        31.02504        -0.12462
C         25.61138        33.12516        -0.24817
C         24.40448        33.84601        -0.23286
C         25.67770        35.93218         0.27547
C         24.43975        35.26546         0.03782
C         25.72335        37.33529         0.56253
C         24.49067        38.14107         0.22817
C         25.65806        40.14426         1.36779
C         24.38740        39.41906         1.01834
C         25.68240        41.62416         1.29317
C         24.46993        42.32949         1.18822
C         25.68422        44.43446         1.16388
C         24.46816        43.73778         1.21417
C         25.63923        45.89012         1.06062
C         24.49879        46.63117         1.18718
C         25.68506        48.78665         0.62746
C         24.52700        48.14232         1.36274
C         25.69481        50.20132         0.24932
C         24.55599        51.06098         0.71873
C         25.92415        53.17876         0.02485
C         24.60175        52.53435         0.41531
C         25.91023        54.58546        -0.49226
C         24.58606        55.26643        -0.63102
C         25.78092        57.03272        -2.10145
C         24.48266        56.38828        -1.61722
C         25.69714        58.43460        -2.47860
C         24.46751        59.09646        -2.59069
C         24.40484        60.43996        -3.06081
C         27.08396         8.60698        -1.26714
C         28.21151        10.71584        -2.07407
C         27.01976         9.91786        -1.57169
C         28.20481        12.15824        -1.58418
C         26.98751        12.83666        -1.44666
C         28.29074        14.93797        -0.84217
C         26.95063        14.27862        -1.17816
C         28.27336        16.19416        -0.08508
C         26.98187        16.92606        -0.06009
C         28.14838        18.79177         1.26718
C         26.94604        18.28590         0.53675
C         28.17885        20.28561         1.61469
C         26.88363        21.01051         1.27332
C         28.17743        23.18487         1.11684
C         26.87348        22.50783         1.50393
C         28.18940        24.52880         0.79095
C         26.95507        25.34211         1.10883
C         28.14743        27.38757         0.28508
C         26.97080        26.73063         0.51047
C         28.15552        28.79697        -0.11901
C         26.88671        29.49060        -0.36934
C         28.10610        31.59959        -0.53080
C         26.91378        30.93333        -0.50000
C         28.15838        32.99465        -0.05659
C         26.84394        33.75593         0.18791
C         28.14618        35.84542         0.54274
C         26.90625        35.21012         0.33384
C         28.17638        37.26325         0.83235
C         26.91974        37.96023         0.91759
C         28.25378        40.12248         1.63837
C         26.93303        39.36815         1.42283
C         28.19395        41.60391         1.28074
C         26.93304        42.31054         1.25690
C         28.17732        44.44539         1.00640
C         26.92137        43.72885         1.11879
C         28.16816        45.82665         0.81719
C         26.89064        46.52107         0.59154
C         28.17684        48.62935        -0.02679
C         26.83895        47.96600         0.21134
C         28.22166        50.06381        -0.43122
C         26.93263        50.83924        -0.35740
C         28.31187        52.92423        -0.93839
C         27.11087        52.33087        -0.27650
C         28.26131        54.26525        -1.35941
C         27.09173        55.07457        -1.26912
C         27.05298        56.34357        -1.82688
C         29.43347        12.78302        -1.26444
C         30.68165        14.69693        -0.27728
C         29.50879        14.10969        -0.78645
C         30.70220        16.01899         0.25780
C         29.43425        16.72537         0.40829
C         30.72576        18.72195         1.39585
C         29.41895        18.00759         1.16348
C         30.70653        20.23152         1.40488
C         29.40969        20.92227         0.93303
C         30.62724        22.98101         0.33353
C         29.50474        22.43718         1.22521
C         30.56493        24.46791        -0.06997
C         29.37173        25.22559         0.35296
C         30.61364        27.35267         0.10941
C         29.40467        26.64298         0.27361
C         30.62121        28.85163         0.26793
C         29.34307        29.46906        -0.23307
C         30.61994        31.62705        -0.79159
C         29.34009        30.81620        -0.90862
C         30.60956        33.11858        -0.55279
C         29.36589        33.80080        -0.14727
C         30.66751        35.77300         0.55318
C         29.37022        35.10781         0.31076
C         30.67549        37.25596         0.84528
C         29.39378        37.98518         0.89591
C         30.66805        40.09549         1.01437
C         29.45844        39.40373         1.06730
C         30.71159        41.55254         1.44642
C         29.40501        42.30053         1.20188
C         30.67049        44.43279         0.92649
C         29.42496        43.72105         1.07207
C         30.68116        45.85912         0.83665
C         29.40653        46.61178         1.16535
C         30.68266        48.80874         0.43585
C         29.39861        48.06236         0.64810
C         30.68559        50.10651        -0.27930
C         29.51643        50.80884        -0.48312
C         29.48666        52.15988        -0.95503
C         31.90421        16.65303         0.61093
C         33.18694        18.70975         1.00977
C         31.98735        18.01970         1.04387
C         33.30325        20.17503         1.11963
C         32.00049        20.98360         1.24403
C         33.04188        22.57922        -0.25292
C         31.92170        22.24674         0.46457
C         32.99821        24.66768        -0.72122
C         31.79719        25.25316        -0.31251
C         33.08876        27.34373        -0.16924
C         31.83739        26.65559        -0.07252
C         33.09252        28.79855        -0.26908
C         31.87656        29.51846        -0.24202
C         33.09950        31.59905        -0.62064
C         31.88152        30.89073        -0.54983
C         33.10747        33.08288        -0.70714
C         31.88969        33.81414        -0.31847
C         33.15650        35.87422         0.17111
C         31.91610        35.13026         0.07617
C         33.14209        37.29001         0.44293
C         31.93088        38.00067         0.64005
C         33.14869        40.13132         0.69989
C         31.91296        39.41003         0.76037
C         33.14341        41.57353         0.76594
C         31.94344        42.28411         0.95382
C         33.11538        44.44122         0.64549
C         31.90869        43.71234         0.84856
C         33.08556        45.82321         0.51537
C         31.87973        46.55046         0.63203
C         32.00238        48.06412         0.59295
C         34.50253        20.84669         0.55978
C         35.50430        22.99613        -0.28942
C         34.39647        22.11784         0.01136
C         35.49162        24.40793        -0.44722
C         34.27018        25.22775        -0.45853
C         35.60670        27.35709        -0.04071
C         34.29796        26.61692        -0.21565
C         35.54165        28.67047        -0.84158
C         34.30627        29.48173        -0.49107
C         35.56269        31.60712        -0.21419
C         34.31080        30.88843        -0.53710
C         35.64230        33.05983        -0.24948
C         34.41608        33.82602        -0.50442
C         35.62614        35.88417         0.16127
C         34.37676        35.21860        -0.03582
C         35.61976        37.29608         0.34494
C         34.38158        38.00135         0.44090
C         35.62738        40.12762         0.51218
C         34.37158        39.42310         0.55683
C         35.58727        41.56358         0.52262
C         34.40551        42.25984         0.62077
C         34.46191        43.76440         0.70365
C         36.72416        25.11669        -0.49163
C         38.04455        27.19859        -0.58809
C         36.83260        26.53861        -0.43149
C         38.14862        28.67814        -0.60014
C         36.86201        29.44479        -0.72075
C         38.11990        31.58476        -0.13456
C         36.85849        30.83086        -0.16487
C         38.09071        32.97025         0.04783
C         36.84478        33.71621        -0.00094
C         38.08974        35.85262         0.27440
C         36.85263        35.15684         0.12217
C         38.07665        37.26198         0.38192
C         36.86842        37.99951         0.40405
C         36.83487        39.42415         0.46319
C         39.33885        29.42931        -0.15691
C         40.56073        31.57547         0.16115
C         39.34694        30.81791        -0.07742
C         40.54970        32.93484         0.27714
C         39.32598        33.70603         0.21215
C         39.31132        35.09197         0.31122
O         26.93920        52.91947         1.05178
O         15.02732        29.22975         2.59082
O         25.54696        11.39540        -2.85044
O         19.86101        27.07659        -1.08283
O         22.72194        26.61983        -1.01589
O         36.09298        31.01697         1.05774
O         24.93780        56.10968        -2.95535
O         19.27164        18.47159        -1.10027
O         13.10057        32.87556         1.94209
O         30.22682        23.35603        -1.00910
O         25.44908        55.56747         0.51190
O         26.64701        46.93237        -0.83767
O         24.76305        52.00836         1.79643
O         20.40452        40.17801        -1.44299
O         26.12410        39.55656         2.64328
O         29.90891        48.95301         1.70104
O         23.83794        25.24707         2.45456
O         32.87791        20.85535         2.37975
O         30.79068        36.25334         1.93535
O         27.53701        33.05132         1.28579
O         27.68252        15.06415        -2.17383
O         18.56649        16.26580         1.62285
O         25.02760        27.58306         1.80935
O         24.97967        22.86804         3.01235
O         21.10541        41.53566         2.06138
O         26.49452        22.69778         2.96802
O         17.24768        30.58719         2.37409
O         33.83328        33.63377        -1.85410
O         14.64448        21.47880         2.17283
O         11.85896        34.26430        -1.35756
O         30.65648        32.55894        -1.93270
O         23.47140        39.51805         2.14121
O         21.19527        44.22693         2.53564
O         28.29813        48.98651        -1.43406
O         28.56255        17.93625         2.37197
O         32.93203        23.42791        -1.35645
O         13.90337        44.51595         1.32803
O         21.53790        48.21673        -0.95454
O         27.08014        18.14889        -0.91966
O         25.89552        50.39784        -1.25201
O          8.68388        33.62184         1.62037
O         30.68503        19.47958         2.64432
O         37.66035        29.30682        -1.92310
O         19.94412        22.15317        -0.73937
O         12.37527        22.70051         2.23816
O         24.77827        16.25758         2.01937
H         23.91927        16.37621         2.50090
O         23.02102        31.48885        -2.09979
H         22.05677        31.53540        -2.33738
O          8.46290        40.26734        -0.37433
H          8.68315        40.13572        -1.31902
O         18.82738        48.45133        -1.83522
H         19.77162        48.69190        -1.97019
O         15.97042        14.55757        -2.25199
H         16.77433        15.05736        -2.50316
O         35.75485        27.71771         1.35277
H         35.74083        26.89891         1.89012
O         11.69215        26.86164         2.67575
H         11.75123        27.80431         2.94118
O         29.95144        22.58943         2.58616
H         29.38188        22.00799         3.15102
O         22.06458         8.43859         0.77638
H         21.22283         8.86448         1.04887
O         13.23073        45.87583        -2.03705
H         14.03281        45.37343        -2.31864
O         17.96191        40.70665        -1.91008
H         18.85343        40.80141        -2.32187
O         35.35470        28.31051        -2.22635
H         36.21005        28.49347        -2.68805
O         20.34511        31.49664        -1.82243
H         19.56518        32.05038        -2.04700
O         35.34423        44.29563        -0.29621
H         34.99667        44.04599        -1.17657
O         22.95332        50.42825         2.40844
H         23.31113        51.31332         2.67732
O         24.29892        20.49592         3.00358
H         24.79869        21.13713         3.56508
O         14.19950        25.44094        -0.98598
H         15.09239        25.59644        -1.39025
O         28.17132        10.72492        -3.51037
H         27.29231        11.09207        -3.76576
O         21.78432        13.16565        -2.74596
H         22.61961        13.59534        -3.02998
O         26.97857        25.56046         2.54950
H         26.17387        26.08149         2.78275
O         18.05433        20.72972        -1.59991
H         18.76791        20.24818        -2.07511
O         23.09204        44.61152        -0.49512
H         23.82440        45.18482        -0.81426
O         19.87049        29.79984         2.33946
H         19.07089        30.21473         2.75260
O         32.89131        48.44254        -0.46578
H         32.55315        48.07398        -1.30739
O         16.56973        13.91932         1.32480
H         17.12307        14.59472         1.77623
O         23.40311         6.46264        -2.98163
H         24.24477         6.87931        -3.26558
O         24.73780        38.61285        -1.14862
H         24.68128        37.83908        -1.74857
O         20.84058        53.35956         1.73510
H         20.05271        53.90576         1.97426
O         30.87442        41.51940         2.90248
H         30.09527        41.02165         3.26319
O         29.20087        30.48764        -2.32576
H         29.48470        31.28464        -2.83043
O         22.21626        52.30540        -1.52442
O         23.25596        41.83790        -0.75545
H         23.25712        42.81109        -0.94709
O         28.29967        20.44468         3.04141
H         28.69221        19.60365         3.38803
O         24.58566        48.34604         2.82286
H         24.05433        49.16517         3.01439
O         29.34965        46.67879         2.62525
H         29.71353        47.56081         2.88331
O         25.60253        31.76577        -2.18788
H         24.66505        31.74444        -2.50254
O         26.03119         7.94394         0.73368
H         25.21939         7.56303         1.13264
O         15.73153        44.40832        -1.79261
H         16.58485        44.71176        -2.17112
O         19.18118        48.59432         1.83789
H         18.38428        48.09850         2.12131
O         23.09407        45.93175         2.95457
H         23.52361        46.75965         3.28428
O         20.45238        18.73254         2.43014
H         20.93850        17.92233         2.73095
O         28.51874        40.10591         3.08026
H         27.63430        40.07584         3.52448
O         20.29306        23.11712         2.76876
H         21.02827        23.49711         3.29422
O         22.02606        16.40487         2.36374
H         21.60128        15.52994         2.51192
O         16.91085        25.41627        -1.25697
H         17.30922        24.58610        -1.59795
O         30.64260        29.11078         1.72204
H         29.91266        28.59660         2.12972
O         29.26810        20.68427        -0.47821
H         29.53473        21.47865        -0.99284
O          9.92630        29.69442        -1.60493
H          9.95736        28.77818        -1.95433
O         13.25595        36.29221        -2.02462
H         12.85754        35.48464        -2.42882
O         15.89205        36.03430        -2.01272
H         14.99403        36.30397        -2.34665
O         24.41768        31.32877         1.29554
H         25.15651        30.84086         1.71678
O         18.30701        54.80273         1.47585
H         17.53130        54.31249         1.81943
O         12.03874        37.97584         2.00523
H         12.81467        38.47069         2.34568
O         17.79766        44.77310         2.23070
H         18.62403        44.68165         2.75502
H          4.99483        31.18139        -0.84583
H          4.92902        33.63213        -0.78206
H          7.38112        26.91093         0.00095
H          6.16745        29.03584        -0.47210
H          6.11705        35.82718        -0.41088
H          7.35399        38.02256        -0.03347
H          9.84353        22.71607         0.08467
H          8.59790        24.81935         0.25870
H          9.17727        39.79411         1.48989
H          9.86063        42.25149         0.01275
H         12.36127        18.42185        -0.22439
H         11.13376        20.48907         0.05912
H         11.08809        44.35709        -0.41685
H         12.45087        46.67884        -0.29776
H         14.81677        14.16429        -0.59228
H         13.60376        16.33652        -0.66351
H         13.72983        48.74573        -0.57105
H         15.01979        50.84365        -0.73498
H         17.41182         9.82379        -0.90906
H         16.13264        11.84095        -0.46863
H         16.21882        52.96515        -0.53057
H         17.43904        55.09955        -0.41878
H         20.02009         5.65090        -1.15767
H         18.71149         7.76137        -1.29661
H         18.63361        57.13279        -1.04144
H         19.84159        59.08961        -1.95136
H         23.55414         2.41418        -1.09652
H         21.36346         3.57138        -0.97940
H         23.17479        62.14835        -3.53496
H         21.04455        61.05804        -2.85399
H         25.68077         3.67442        -1.11198
H         26.83259         5.83074        -0.85103
H         26.62942        58.99755        -2.63573
H         25.33419        60.93811        -3.37249
H         28.05337         8.08431        -1.27882
H         29.16396        10.21471        -1.76948
H         29.14963        54.69565        -1.84636
H         27.97108        56.76853        -2.26166
H         30.35478        12.18271        -1.31025
H         31.62117        14.12435        -0.30434
H         31.65935        50.58500        -0.45940
H         30.43126        52.63212        -1.26411
H         32.84866        16.11474         0.43731
H         34.08289        18.17042         0.66268
H         34.02632        46.37074         0.36123
H         32.48881        48.40241         1.54570
H         35.48394        20.36238         0.67719
H         36.50490        22.54344        -0.18729
H         36.53283        42.12195         0.45470
H         34.92533        44.03492         1.69468
H         37.65484        24.53430        -0.58679
H         38.96038        26.61207        -0.76590
H         39.03247        37.80188         0.45992
H         37.78309        39.98244         0.45700
H         40.27247        28.87376         0.01970
H         41.51270        31.02769         0.22461
H         41.49482        33.47651         0.43278
H         40.26156        35.63331         0.43653
