         732
 CSIRO Nanostructure Databank - Neutral Graphene Oxide Data Set
C         23.22122        24.62837        -2.08966
C         22.32978        25.15928        -3.00565
C         23.78966        27.06516        -3.26114
C         22.65418        26.35877        -3.65965
C         23.97561        29.36786        -3.43682
C         22.97156        30.16030        -3.99546
C         23.68247        32.01591        -2.61446
C         22.77472        31.45650        -3.53631
C         23.56410        33.41453        -2.24508
C         22.40847        34.16813        -2.55171
C         23.38775        36.18706        -1.59146
C         22.31642        35.50759        -2.21907
C         23.31101        37.59661        -1.26956
C         22.17405        38.36141        -1.59967
C         23.17525        40.39938        -0.70846
C         22.10782        39.72011        -1.32659
C         23.11765        41.82835        -0.46422
C         21.99177        42.59976        -0.84325
C         23.00642        44.64136         0.00778
C         21.94013        43.96553        -0.62975
C         22.97179        46.07986         0.27678
C         21.80286        46.82011         0.07086
C         22.92057        48.88879         0.64626
C         21.77531        48.21087         0.27453
C         25.46105        23.24024        -0.70248
C         25.49984        24.62154        -1.13154
C         24.41398        25.31981        -1.73656
C         25.70819        27.49485        -1.63436
C         24.63249        26.66317        -2.20501
C         25.73000        28.95281        -1.65455
C         24.83266        29.80872        -2.38553
C         25.80134        31.88563        -1.37204
C         24.75191        31.22658        -2.09686
C         25.78247        33.29841        -1.17794
C         24.63480        34.05671        -1.57078
C         25.67428        36.10432        -0.65046
C         24.56332        35.45189        -1.27677
C         25.56850        37.47862        -0.30257
C         24.40878        38.23553        -0.61116
C         25.44095        40.33741         0.23747
C         24.34012        39.65502        -0.33146
C         25.41706        41.74302         0.46805
C         24.21427        42.49287         0.15155
C         25.20683        44.56406         1.14213
C         24.13160        43.88853         0.39622
C         25.32821        46.03190         1.09386
C         24.15598        46.75705         0.72387
C         25.35500        48.85767         1.14649
C         24.13733        48.18403         0.86478
C         25.40778        50.29251         1.34189
C         27.90254        23.13407        -0.99932
C         26.60586        22.52558        -0.52868
C         27.89800        24.60713        -0.69978
C         26.72716        25.33717        -0.96367
C         27.85368        27.39063        -0.15910
C         26.72482        26.78001        -0.97496
C         27.86483        28.89970        -0.14936
C         26.71741        29.65707        -0.79499
C         28.00438        31.76050        -0.28421
C         26.88586        31.12446        -0.87335
C         28.03774        33.18838        -0.18835
C         26.89140        33.94986        -0.56378
C         28.00606        36.01806         0.21315
C         26.85103        35.36001        -0.32503
C         27.98591        37.41206         0.47845
C         26.67661        38.08873         0.43704
C         27.87942        40.31162         0.88818
C         26.62304        39.59277         0.68552
C         27.82351        41.68128         1.09302
C         26.56305        42.37562         0.99826
C         27.69113        44.51787         1.73964
C         26.45576        43.77552         1.43853
C         27.74813        45.92694         1.75186
C         26.54862        46.67392         1.41947
C         27.79190        48.82411         1.19247
C         26.58435        48.12287         1.28004
C         27.76556        50.23330         0.64157
C         26.56857        50.96949         1.18647
C         30.45777        20.33742        -0.99745
C         29.25318        21.00634        -0.92666
C         30.38858        23.08668        -0.43248
C         29.19534        22.40430        -0.68202
C         30.38260        24.51851        -0.08558
C         29.10357        25.29236        -0.25410
C         30.40069        27.43572         0.02853
C         29.18784        26.77118        -0.57272
C         30.36533        28.83735         0.22737
C         29.15113        29.58973         0.07071
C         30.37190        31.67725         0.49997
C         29.16580        30.99578         0.12713
C         30.36869        33.12370         0.65111
C         29.20227        33.86024         0.30782
C         30.36890        35.96661         0.91197
C         29.19808        35.27946         0.47507
C         30.36141        37.39315         1.04786
C         29.15408        38.10498         0.85908
C         30.35194        40.28870         1.49003
C         29.20683        39.61774         0.74744
C         30.24829        41.64186         1.85138
C         28.98606        42.35273         1.66711
C         30.57726        44.69094         2.32954
C         28.74055        43.63867         2.16135
C         30.38556        46.03577         1.85483
C         29.03696        46.69285         1.95214
C         30.31404        48.84857         1.13751
C         29.05398        48.18309         1.55788
C         30.28289        50.22064         0.82051
C         29.08027        50.96820         0.76854
C         30.33534        53.07483         0.52413
C         29.13811        52.36534         0.59307
C         33.06921        19.06395        -1.55441
C         32.93760        20.42143        -1.23376
C         31.69774        21.02986        -0.89125
C         32.84840        23.14551        -0.25493
C         31.66000        22.42892        -0.52269
C         32.84816        24.55076        -0.00395
C         31.64015        25.27871        -0.03423
C         32.82895        27.38325         0.49522
C         31.60590        26.69730         0.15965
C         32.80761        28.79114         0.67684
C         31.58745        29.53273         0.53195
C         32.83995        31.73049         0.82651
C         31.55948        30.94452         0.67353
C         32.61696        32.96630         1.72661
C         31.50608        33.80928         1.14038
C         32.78534        35.92850         1.49598
C         31.54790        35.21523         1.21453
C         32.78442        37.36945         1.45114
C         31.59767        38.09691         1.32955
C         32.80940        40.20300         1.81568
C         31.59222        39.54994         1.53475
C         32.81679        41.62900         2.18576
C         31.49385        42.37050         2.27907
C         32.80962        44.44038         1.43671
C         31.60156        43.84203         2.02276
C         32.77080        45.93086         1.22105
C         31.51728        46.69584         1.40851
C         32.77732        48.72536         0.84231
C         31.54172        48.10998         1.11390
C         32.82392        50.14708         0.49302
C         31.53443        50.92806         0.45964
C         32.83195        53.06550         0.45106
C         31.59076        52.41211         0.51341
C         32.92602        54.48723         0.26901
C         35.51944        19.16983        -1.81355
C         34.29523        18.46362        -1.84319
C         35.47679        20.63231        -1.57294
C         34.12818        21.35318        -1.40054
C         35.38859        23.18268        -0.09525
C         34.13531        22.34347        -0.21856
C         35.29661        24.50518         0.37133
C         34.07253        25.24372         0.32844
C         35.26838        27.31882         1.00109
C         34.04826        26.63459         0.61484
C         35.23057        28.74994         1.23736
C         34.02700        29.48342         1.03079
C         35.21785        31.55493         1.52872
C         34.02540        30.88640         1.22395
C         35.20715        33.00242         1.87521
C         33.91580        33.74864         1.94385
C         35.22411        35.92198         2.00385
C         33.96740        35.22562         1.78385
C         35.27351        37.28814         1.91382
C         34.11346        38.08153         1.37040
C         35.24962        40.22073         2.06711
C         34.06718        39.52681         1.81513
C         35.29910        41.66126         2.05651
C         34.09074        42.36966         1.99660
C         35.27955        44.50378         1.71207
C         34.10951        43.78545         1.73387
C         35.30302        46.01059         1.71241
C         34.03786        46.66062         1.23329
C         35.28222        48.68582         0.70018
C         34.02716        48.01974         0.97384
C         35.27884        50.12485         0.54386
C         34.09826        50.86298         0.61437
C         35.41263        53.02375         0.54781
C         34.10118        52.34487         0.87354
C         35.43184        54.55632         0.65250
C         34.09586        55.17001         0.32683
C         38.02081        16.51970        -2.64093
C         36.85618        17.19456        -2.50532
C         38.00742        19.17694        -1.54644
C         36.77275        18.53461        -1.96496
C         37.97960        20.50609        -0.97274
C         36.72904        21.28556        -1.05452
C         37.86522        23.17923         0.04653
C         36.64930        22.56208        -0.30919
C         37.83953        24.48338         0.73205
C         36.50285        25.17956         0.86432
C         37.71155        27.25775         1.57449
C         36.46991        26.62504         1.09084
C         37.68054        28.73865         1.83730
C         36.42448        29.44810         1.52741
C         37.72974        31.58253         1.33433
C         36.43655        30.84822         1.58214
C         37.71021        32.96957         1.95535
C         36.48005        33.79832         1.63635
C         37.79214        35.86702         2.06291
C         36.48862        35.14873         2.40364
C         37.82288        37.32585         2.10092
C         36.52022        38.00699         2.29049
C         37.80186        40.25359         2.37315
C         36.50170        39.49903         2.38657
C         37.79109        41.68926         2.02846
C         36.56505        42.35590         1.99296
C         37.80122        44.51561         1.55278
C         36.56905        43.85504         2.12526
C         37.77585        45.88225         1.13080
C         36.54483        46.60244         1.07957
C         37.67257        48.51467        -0.08811
C         36.48310        47.94442         0.64892
C         37.67928        50.04762        -0.12224
C         36.51533        50.80754         0.36213
C         37.91502        52.78617         0.56765
C         36.57076        52.23183         0.50827
C         37.85768        54.82887         0.06142
C         36.53441        55.19199        -0.20920
C         37.45688        56.57857        -1.98057
C         36.35082        56.07049        -1.29043
C         40.21702        16.85350        -4.49761
C         40.43444        17.09570        -3.16159
C         39.32295        17.06021        -2.13206
C         40.46785        19.04515        -1.10181
C         39.21426        18.47667        -1.63666
C         40.40637        20.42426        -0.45577
C         39.13060        21.15155        -0.50682
C         40.34809        23.19646         0.28452
C         39.11762        22.53039        -0.11642
C         40.34552        24.52900         0.74723
C         39.08243        25.33485         0.58409
C         40.18521        27.24692         1.74544
C         39.03826        26.62226         1.37042
C         40.20581        28.68501         2.26259
C         38.96764        29.46910         1.86531
C         40.23624        31.56285         1.63181
C         38.98590        30.82135         1.70758
C         40.21602        32.94747         1.57992
C         39.01026        33.70383         1.96722
C         40.15531        35.93685         1.32756
C         38.95139        35.17497         1.84690
C         40.31188        37.25998         2.06536
C         39.00605        38.01747         2.06415
C         40.30723        40.20693         1.79450
C         39.09119        39.48411         2.23342
C         40.29536        41.63000         1.76106
C         39.04406        42.38099         1.88130
C         40.26433        44.55072         1.60409
C         39.00609        43.78595         1.63232
C         40.27344        45.91953         1.06700
C         39.01288        46.57265         0.79643
C         40.21009        48.63242         0.14235
C         38.99991        47.91358         0.34964
C         40.24568        50.00785        -0.15461
C         38.98359        50.76450        -0.28694
C         40.24067        52.94716        -0.31337
C         39.04491        52.20497         0.04989
C         40.19321        54.32287        -0.71624
C         38.96110        55.09750        -0.77110
C         39.94813        56.67338        -2.40171
C         38.77101        56.11707        -1.74630
C         39.85627        57.78227        -3.27021
C         42.55960        17.31587        -5.05135
C         41.27879        16.90718        -5.43428
C         42.83629        17.68838        -3.73411
C         41.80542        17.47746        -2.65616
C         42.90051        19.39114        -1.45329
C         41.74946        18.67288        -1.71563
C         42.87918        20.59389        -0.64162
C         41.65265        21.18451        -0.31264
C         42.81066        23.14837         0.59865
C         41.60137        22.51259         0.19154
C         42.74234        24.43424         1.20679
C         41.52359        25.12381         1.26214
C         42.71218        27.23301         2.08281
C         41.41573        26.41159         2.06648
C         42.68795        28.68748         1.76610
C         41.48625        29.39788         1.83585
C         42.70346        31.48575         1.42570
C         41.48146        30.80811         1.58665
C         42.71875        32.92665         1.09566
C         41.39323        33.70601         1.15323
C         42.64835        35.84232         1.22765
C         41.45125        35.16150         1.32204
C         42.67337        37.31078         1.26404
C         41.50264        38.03698         1.53747
C         42.70673        40.15858         1.18080
C         41.49596        39.46710         1.50770
C         42.71923        41.59168         1.16949
C         41.52619        42.30120         1.49064
C         42.79702        44.48472         1.17923
C         41.58846        43.76545         1.58891
C         42.74325        45.87437         1.00731
C         41.49216        46.55928         0.85359
C         42.70890        48.76134         0.47060
C         41.52060        47.88213         0.12736
C         42.71298        50.11636        -0.11870
C         41.45542        50.75765        -0.27274
C         42.62325        52.81877        -0.95387
C         41.42737        52.18089        -0.52177
C         42.55016        54.16522        -1.38074
C         41.33950        54.89397        -1.33949
C         42.39351        56.79520        -2.58094
C         41.23025        56.14921        -2.07846
C         42.26823        57.89933        -3.42323
C         41.00014        58.37561        -3.78616
C         45.27591        18.10581        -4.08658
C         44.08821        18.26854        -3.32242
C         45.34772        19.70392        -1.75103
C         44.13549        19.08097        -2.15504
C         45.36182        20.69127        -0.70171
C         44.10107        21.25271        -0.28988
C         45.30517        23.08369         0.85910
C         44.06315        22.46939         0.42077
C         45.25452        24.33219         1.46698
C         43.95754        24.94053         1.95524
C         45.24339        27.21618         1.63664
C         44.00973        26.48340         2.02600
C         45.18984        28.64555         1.49116
C         43.93787        29.35796         1.56241
C         45.17313        31.50035         1.39194
C         43.93833        30.78048         1.47722
C         45.17511        32.98949         1.68579
C         43.93208        33.71796         1.25763
C         45.14624        35.85647         1.12063
C         43.90775        35.11120         1.19079
C         45.13859        37.26863         0.94135
C         43.90193        38.00018         1.03156
C         45.13598        40.12037         0.68732
C         43.91310        39.42476         0.96524
C         45.13824        41.54672         0.59952
C         43.94051        42.28527         0.87133
C         45.17822        44.40133         0.57596
C         43.99377        43.73074         0.89747
C         45.30365        45.83420         0.85040
C         44.01706        46.62723         1.02722
C         45.25483        48.80077         0.31761
C         44.02803        48.11376         0.78449
C         45.19446        50.08087        -0.25849
C         43.92413        50.77331        -0.39542
C         45.07360        52.71073        -1.37616
C         43.88234        52.09995        -0.94348
C         45.02480        54.02793        -2.02518
C         43.71686        54.78115        -2.03450
C         44.96631        56.81404        -2.76698
C         43.73592        56.29501        -2.07350
C         46.47238        18.63624        -3.65353
C         47.79854        19.85379        -1.91479
C         46.54843        19.41606        -2.46840
C         47.80847        20.55115        -0.66489
C         46.58350        21.18442        -0.16319
C         47.75592        22.98804         1.18315
C         46.56185        22.35766         0.67278
C         47.75887        24.38333         1.49506
C         46.48643        25.05032         1.93612
C         47.68132        27.24294         1.44415
C         46.45145        26.53222         1.60124
C         47.65573        28.65435         1.25831
C         46.39875        29.36432         1.28172
C         47.61058        31.55732         1.00256
C         46.36276        30.80241         1.24519
C         47.63399        33.03169         1.21208
C         46.41848        33.72909         1.27299
C         47.60960        35.85004         0.91176
C         46.38848        35.14168         1.12446
C         47.59380        37.25230         0.64460
C         46.35676        37.97028         0.68821
C         47.55981        40.08122         0.16848
C         46.35424        39.39479         0.49983
C         47.54557        41.50598        -0.00398
C         46.34088        42.21235         0.20851
C         47.60287        44.40603        -0.31958
C         46.31018        43.66773        -0.00246
C         47.73687        45.85113        -0.02048
C         46.58240        46.57522         0.55362
C         47.73043        48.72675        -0.22332
C         46.54637        48.10293         0.37104
C         47.66160        50.04007        -0.69155
C         46.39594        50.73455        -0.72127
C         47.54224        52.75663        -1.60257
C         46.33880        52.06008        -1.23310
C         47.49863        54.12922        -2.03361
C         46.26223        54.78540        -2.23775
C         46.14016        56.12217        -2.75321
C         50.24659        19.76452        -1.90792
C         49.03968        19.50606        -2.51977
C         50.28682        20.26464        -0.57543
C         49.03846        20.57666         0.02393
C         50.23035        23.00392         1.43227
C         49.00070        22.32478         1.33252
C         50.22538        24.43645         1.47315
C         48.95764        25.10552         1.54661
C         50.15101        27.25615         1.43339
C         48.93138        26.54987         1.52029
C         50.12198        28.65931         1.21742
C         48.90012        29.33663         1.11265
C         50.14899        31.52940         1.19133
C         48.88859        30.79642         0.86742
C         50.11609        33.00513         1.37100
C         48.84843        33.74302         1.18737
C         50.06984        35.87313         0.81171
C         48.85045        35.15385         1.01508
C         50.03305        37.19119         0.35024
C         48.80883        37.92007         0.32177
C         49.97841        39.99617        -0.30897
C         48.79823        39.33955         0.03451
C         49.96581        41.42538        -0.65251
C         48.76343        42.22226        -0.34085
C         50.08279        44.32356        -0.65637
C         48.83990        43.60943        -0.42887
C         50.10701        45.75003        -0.65378
C         48.92232        46.50085        -0.28084
C         50.16116        48.62792        -0.85687
C         49.04811        48.00193        -0.05634
C         50.10117        50.00224        -1.18780
C         48.86077        50.71716        -1.12796
C         50.00858        52.77538        -1.87106
C         48.80309        52.08306        -1.52832
C         49.93613        54.15715        -2.19713
C         48.73198        54.81154        -2.27046
C         52.80442        20.50979        -0.49258
C         51.53619        20.54309         0.08743
C         52.70252        23.01346         1.21108
C         51.48750        22.32962         1.35840
C         52.70776        24.44134         1.44237
C         51.44505        25.14232         1.54001
C         52.63853        27.29171         1.58221
C         51.42707        26.57663         1.53294
C         52.68650        28.68486         1.33414
C         51.41665        29.34321         0.97566
C         52.69338        31.55938         1.12693
C         51.43781        30.83884         0.89501
C         52.62598        33.00769         0.75379
C         51.41069        33.74747         1.29521
C         52.62316        35.85892         0.57096
C         51.37235        35.20650         1.01214
C         52.59467        37.18595         0.21698
C         51.29137        37.82486        -0.08935
C         52.51819        40.06864        -0.12510
C         51.26236        39.27457        -0.44676
C         52.59254        41.36833        -0.95375
C         51.26520        42.13617        -0.96171
C         52.51070        44.28802        -1.09074
C         51.29842        43.61191        -0.86203
C         52.51393        45.71379        -1.21112
C         51.31531        46.44167        -0.96016
C         52.53112        48.53835        -1.51384
C         51.33380        47.87785        -1.10393
C         52.52326        49.95626        -1.70497
C         51.29388        50.67515        -1.61515
C         52.48093        52.72511        -2.21561
C         51.26291        52.07194        -1.89429
C         53.92718        21.18790         0.01774
C         55.16936        23.07428         1.01032
C         53.92578        22.35525         0.81410
C         55.16756        24.45656         1.38611
C         53.91821        25.13762         1.54529
C         55.15424        27.33903         1.74685
C         53.88486        26.57520         2.02305
C         55.15128        28.71773         1.57214
C         53.89101        29.41802         1.37991
C         55.14252        31.58701         1.31606
C         53.90237        30.86555         1.25381
C         55.13463        33.09417         1.45547
C         53.88948        33.77718         0.97520
C         55.11196        35.85538         0.52627
C         53.87538        35.14198         0.73364
C         55.07055        37.21017         0.11051
C         53.82405        37.90848        -0.01060
C         55.01561        39.94086        -0.66556
C         53.81111        39.28609        -0.29115
C         55.05069        41.38954        -0.88941
C         53.81599        42.19103        -0.52098
C         54.94683        44.20083        -1.43597
C         53.77804        43.57363        -1.12396
C         54.91792        45.60439        -1.88986
C         53.70772        46.39368        -1.59195
C         54.98719        48.49924        -1.95021
C         53.73909        47.79669        -1.71563
C         54.98715        49.92086        -2.03263
C         53.73491        50.64609        -2.00235
C         53.67839        52.03752        -2.25021
C         57.60565        23.11095         0.99767
C         56.41729        22.42800         0.84215
C         57.62624        24.48701         1.34766
C         56.40475        25.15144         1.53847
C         57.66713        27.34395         1.64356
C         56.42530        26.58259         2.02657
C         57.62310        28.74976         1.63703
C         56.39680        29.46947         1.56399
C         57.59665        31.67753         1.36848
C         56.37737        30.91109         1.43884
C         57.60692        33.06042         1.02704
C         56.38649        33.77582         0.95370
C         57.57809        35.86178         0.34531
C         56.35728        35.15274         0.60966
C         57.54092        37.20825        -0.08110
C         56.28023        37.87980        -0.24418
C         57.42807        39.74453        -1.45421
C         56.22213        39.21166        -0.71818
C         57.41499        41.27238        -1.63228
C         56.19198        42.02914        -1.26172
C         57.50220        44.21788        -1.61436
C         56.25764        43.53105        -1.09169
C         57.50239        45.60151        -1.84337
C         56.23045        46.33051        -2.06921
C         57.45587        48.49052        -2.08400
C         56.22478        47.80280        -2.01032
C         57.42620        49.90389        -2.13119
C         56.22749        50.59410        -2.12732
C         60.12091        24.52028         1.39581
C         58.89991        25.20529         1.45520
C         60.15303        27.33814         1.46635
C         58.90629        26.63511         1.53956
C         60.16768        28.78395         1.55302
C         58.89657        29.48201         1.77906
C         60.13919        31.68813         1.30326
C         58.87828        31.02145         1.65327
C         60.10305        33.09784         0.95619
C         58.85448        33.77328         0.82192
C         60.05537        35.88460         0.39703
C         58.83895        35.16686         0.51290
C         60.04799        37.39623         0.26648
C         58.76055        37.95408        -0.30484
C         59.97001        39.93014        -1.14558
C         58.73604        39.21263        -0.88194
C         59.98050        41.27744        -1.51459
C         58.70964        42.01843        -1.70415
C         59.95262        44.17329        -1.82093
C         58.72821        43.50499        -1.63837
C         59.96853        45.60856        -1.94125
C         58.72801        46.31978        -1.97725
C         59.94334        48.41463        -2.24714
C         58.72134        47.74933        -2.11759
C         61.33582        25.21309         1.36381
C         61.35299        26.60236         1.37027
C         61.32963        29.54126         1.46501
C         61.31360        30.94903         1.33781
C         61.29371        33.83384         0.80542
C         61.26633        35.20314         0.56132
C         61.24873        37.95717        -0.44995
C         61.20785        39.17342        -1.02814
C         61.18346        42.03710        -1.68942
C         61.16777        43.39572        -1.86249
C         61.17862        46.33811        -2.06618
C         61.15896        47.71225        -2.22425
O         55.48095        45.81267        -3.23757
O         26.72637        29.32775         0.66901
O         41.96399        33.24319        -0.12177
O         26.30567        38.61550         1.76235
O         32.12506        50.43666        -0.79921
O         37.17639        24.47376         2.01149
O         51.28809        38.29004        -1.51143
O         32.68192        44.95660         0.07180
O         37.55861        27.78890         2.95747
O         37.70935        31.77727        -0.07936
O         40.43170        19.19157         0.36339
O         48.99849        20.92153         1.38613
O         29.52561        24.87064         1.08060
O         41.02890        44.32912         2.82578
O         36.36290        38.67539         3.59928
O         51.59091        34.65820         2.39844
O         50.41912        41.67022        -2.06433
O         29.01828        47.72408         2.97344
O         44.80741        46.20599         2.17857
O         46.62702        44.11171        -1.39003
O         48.19553        31.23011        -0.33803
O         46.90938        47.45296         1.67422
O         36.31942        21.39661        -2.50332
O         25.42124        43.98777         2.47823
O         38.08195        54.03403         1.20449
O         44.13682        54.09436        -3.23650
O         51.49311        20.92410         1.45110
O         43.49151        26.98367         3.30523
O         38.14603        50.49920        -1.47749
O         50.10615        32.08879         2.54201
O         38.62339        39.97395         3.55172
O         51.44059        30.03784        -0.33743
O         29.57426        44.16650         3.14422
O         24.17183        28.14461        -4.06891
O         32.14685        41.89949         3.49327
O         34.58040        33.26525         3.18637
O         38.35878        33.15906         3.20981
O         57.96297        41.62634        -2.95131
O         43.21946        48.78126         1.83152
O         58.90430        30.34953         2.96042
O         36.54478        34.09457         0.22708
H         36.92554        33.26196        -0.20671
O         53.85669        42.41819         0.91850
H         54.71876        42.87411         1.09241
O         56.36448        43.69705         0.39464
H         56.54750        44.64457         0.57648
O         32.12965        32.51608         3.00534
H         32.90097        32.49429         3.61913
O         39.04107        25.76002        -0.82400
H         39.87048        26.24366        -1.02312
O         56.51168        26.47210         3.51705
H         56.71573        27.36958         3.86113
O         46.50789        24.95953         3.40291
H         45.57574        24.80866         3.70622
O         55.14372        33.31727         2.92827
H         54.97001        34.27063         3.08429
O         42.30536        16.36463        -1.83851
H         41.55133        16.08909        -1.25695
O         34.39078        38.18308        -0.08901
H         34.44895        37.26716        -0.43872
O         41.75958        47.53470        -1.28637
H         40.93352        47.14281        -1.64257
O         43.79121        24.46525         3.32982
H         43.07027        25.02056         3.72425
O         53.78549        26.48921         3.49436
H         54.68812        26.24110         3.81998
O         35.37637        46.39829         3.13814
H         35.99671        45.75434         3.57448
O         60.12879        37.89214         1.65178
H         60.15975        38.87138         1.60896
O         49.46118        48.18656         1.34408
H         48.67819        47.93328         1.89544
O         41.19228        25.97004         3.43705
H         41.03964        26.79206         3.96596
O         36.49465        34.96349         3.82126
H         35.72778        34.39199         4.06035
O         33.87212        22.09376        -2.61254
H         34.74547        22.22808        -3.05273
O         29.55450        39.83255        -0.68497
H         30.44755        39.44898        -0.82712
O         45.16981        33.04442         3.16501
H         45.19941        33.98873         3.42993
O         40.21379        28.59617         3.72367
H         39.29822        28.32910         3.97900
O         40.61909        36.95270         3.45283
H         40.32709        37.70514         4.01014
O         52.37502        33.01027        -0.70284
H         52.84233        32.24599        -1.10334
O         52.87926        40.99664        -2.31353
H         52.01883        40.79700        -2.75165
O         29.28639        26.91457        -2.01654
H         30.16340        26.58556        -2.30531
O         37.50114        48.04250        -1.46003
H         37.81541        48.77578        -2.04375
O         57.31992        39.15880        -2.78469
H         57.68312        39.82784        -3.41318
O         52.32689        40.35606         1.28134
H         53.01531        41.00970         1.56031
O         39.88180        36.26771        -0.06455
H         39.81968        35.43092        -0.57258
O         33.16333        32.27470        -0.49117
H         33.46793        31.53875        -1.06260
O         34.10948        21.51699         0.98485
H         34.13026        22.11235         1.76384
O         43.82859        56.71310        -0.67275
H         43.77262        57.69112        -0.64454
O         27.55475        50.11326        -0.81878
H         26.66750        49.71606        -0.95157
O         27.62371        26.97050         1.20507
H         26.96287        27.59076         1.58838
O         36.68515        44.09659         3.60483
H         36.11092        43.43971         4.05632
O         27.86228        23.05378        -2.48519
H         27.01868        23.46699        -2.77229
O         35.67987        54.87233         2.05992
H         36.61539        54.61341         2.24503
O         39.75399        16.20895        -1.00981
H         39.31947        16.54082        -0.19536
O         34.03989        52.46637         2.36796
H         34.39619        53.36352         2.58647
H         23.03676        23.63119        -1.66852
H         21.42181        24.60700        -3.28298
H         22.04338        26.73435        -4.49013
H         22.34841        29.74581        -4.79797
H         21.96678        32.06035        -3.96728
H         21.54799        33.69035        -3.03816
H         21.38722        36.04000        -2.45956
H         21.31530        37.89107        -2.09554
H         21.19893        40.26191        -1.61795
H         21.13225        42.11974        -1.32867
H         21.04968        44.51760        -0.95829
H         20.87914        46.31948        -0.24758
H         22.89047        49.98014         0.76318
H         20.83853        48.76166         0.11239
H         24.48756        22.77714        -0.48330
H         24.49475        50.82628         1.64230
H         26.57215        21.48382        -0.17906
H         26.60574        52.05460         1.35452
H         30.45152        19.26307        -1.22658
H         28.31906        20.45593        -1.10731
H         30.29151        54.17143         0.47441
H         28.20042        52.93439         0.52614
H         32.18550        18.41122        -1.51366
H         32.00714        55.04848         0.04330
H         34.30323        17.37877        -2.01480
H         34.07583        56.26305         0.20464
H         38.01960        15.49839        -3.04881
H         35.93140        16.71963        -2.86272
H         37.27799        57.32913        -2.76225
H         35.34234        56.39834        -1.57894
H         39.21039        16.57520        -4.84484
H         38.87329        58.19206        -3.53830
H         43.34080        17.40318        -5.82057
H         41.08377        16.64039        -6.48178
H         43.16032        58.40067        -3.82282
H         40.91550        59.23665        -4.46315
H         45.25487        17.49525        -4.99971
H         44.96419        57.84050        -3.16263
H         47.37935        18.43767        -4.23955
H         47.03500        56.61379        -3.16230
H         51.18245        19.51423        -2.42586
H         49.04544        19.02962        -3.50838
H         50.85231        54.72126        -2.41359
H         48.72127        55.87603        -2.53793
H         52.94580        19.94493        -1.42653
H         52.49214        53.80042        -2.43474
H         54.88574        20.91057        -0.44568
H         54.59272        52.59134        -2.50046
H         58.54531        22.56354         0.84970
H         56.45518        21.35680         0.60354
H         58.35971        50.47845        -2.18759
H         56.25657        51.69052        -2.17427
H         60.14594        23.42336         1.37064
H         59.97654        49.50520        -2.36615
H         62.28025        24.65377         1.31712
H         62.31882        27.12220         1.32643
H         62.30492        29.04293         1.38275
H         62.27770        31.44315         1.15697
H         62.26766        33.34318         0.92968
H         62.22138        35.74293         0.51937
H         62.20691        37.42117        -0.40646
H         62.12409        39.58862        -1.47119
H         62.15423        41.52315        -1.67013
H         62.12723        43.91075        -2.00182
H         62.14551        45.81941        -2.04053
H         62.10288        48.26522        -2.32624
