         349
 CSIRO Nanostructure Databank - Neutral Graphene Oxide Data Set
C          1.40819         3.92747         2.43051
C          0.18120         4.49646         2.09136
C          1.29140         6.57940         1.49224
C          0.12818         5.80229         1.60162
C          1.23937         7.90166         0.73773
C         -0.04363         8.69534         0.85155
C          1.05980        10.57154        -0.31693
C         -0.12369         9.92613         0.31824
C          1.01176        11.98527        -0.87235
C         -0.23329        12.76550        -0.86295
C          1.04017        14.86596        -0.76908
C         -0.20575        14.11565        -0.80864
C          1.06044        16.24183        -0.60871
C         -0.14360        17.02725        -0.40707
C          1.02367        19.15485        -0.88232
C         -0.16890        18.38294        -0.47272
C          1.05634        20.64193        -0.74064
C         -0.15450        21.40631        -0.91244
C          0.98954        23.53289        -0.44682
C         -0.16446        22.77059        -0.93052
C          1.14802        24.99555        -0.67579
C          0.15958        25.72241        -1.36175
C          1.46665        27.75762        -1.17336
C          0.31301        27.08123        -1.61154
C          1.64685        29.16742        -1.45980
C          3.90463         4.01688         2.69650
C          2.58942         4.67117         2.31543
C          3.79600         6.79326         1.80925
C          2.53084         6.01121         1.87244
C          3.75297         8.21378         1.30475
C          2.42310         8.82780         0.99155
C          3.63565        10.70082        -0.32208
C          2.38543        10.13685         0.25222
C          3.53422        11.94128        -1.22839
C          2.28114        12.74890        -0.95923
C          3.50505        14.88222        -1.43604
C          2.28346        14.11592        -0.95631
C          3.60994        16.28886        -0.91132
C          2.36655        16.97274        -0.38737
C          3.60180        19.13524        -0.74537
C          2.32305        18.40544        -0.87788
C          3.56169        20.61255        -0.82732
C          2.26648        21.29872        -0.62250
C          3.57642        23.45040        -0.14034
C          2.29184        22.72299        -0.28219
C          3.46626        24.86784         0.32043
C          2.31425        25.65856        -0.21323
C          3.62138        27.80036         0.06617
C          2.46712        27.03830        -0.47423
C          3.87114        29.17226        -0.44342
C          2.79300        29.83046        -1.13765
C          6.19672         3.82265         1.67671
C          5.09665         4.57116         1.94544
C          6.26147         6.62354         1.01626
C          5.11028         6.03774         1.74731
C          6.19897         7.99397         0.53413
C          4.97571         8.82607         0.67861
C          6.07348        10.59209        -0.76257
C          4.82429        10.04000        -0.17882
C          6.07250        12.03312        -1.21188
C          4.79985        12.78431        -1.14899
C          6.06922        14.90093        -1.61807
C          4.80436        14.13229        -1.25689
C          6.08004        16.35608        -1.19288
C          4.80667        16.99577        -0.94087
C          6.04168        19.22447        -0.83871
C          4.78025        18.44393        -0.70070
C          6.06139        20.58153        -0.17074
C          4.83445        21.37842        -0.58886
C          6.00809        23.37305         0.50229
C          4.76209        22.78174        -0.13141
C          6.03054        24.89320         0.25255
C          4.73846        25.56919         0.69044
C          6.05972        27.80236         1.06027
C          4.74711        27.07403         0.74509
C          6.24368        29.09507         0.27507
C          5.11276        29.75459        -0.31540
C          8.56689         3.65915         1.00875
C          7.41460         4.41158         1.12949
C          8.47940         6.37805        -0.10179
C          7.35797         5.81336         0.74847
C          8.61187         7.86152         0.15217
C          7.34195         8.61230         0.04291
C          8.56238        10.64539        -0.68651
C          7.36414         9.96068        -0.42193
C          8.54575        12.06414        -0.96974
C          7.33597        12.78756        -1.13377
C          8.54539        14.91509        -1.08071
C          7.33594        14.18204        -1.23589
C          8.55876        16.35761        -1.08237
C          7.30955        17.04605        -1.16624
C          8.64299        19.30714        -1.17546
C          7.32010        18.53377        -1.17209
C          8.57139        20.69689        -0.55429
C          7.35264        21.35410        -0.33967
C          8.48463        23.46746         0.16755
C          7.31204        22.73479         0.04083
C          8.47313        24.79742         0.70216
C          7.28341        25.53518         0.80126
C          8.51914        27.60749         1.17315
C          7.30323        26.94085         1.00172
C          8.65365        28.99218         0.78016
C          7.49320        29.66987         0.25283
C         11.15977         3.60114         0.84004
C          9.84580         4.21705         0.51921
C         11.07880         6.42571         0.12745
C          9.81107         5.62839         0.02509
C         11.10519         7.80858        -0.38824
C          9.87968         8.57516        -0.15845
C         11.03468        10.59122        -0.91628
C          9.83757         9.97823        -0.57703
C         11.02209        12.03849        -1.17634
C          9.76021        12.78394        -0.97621
C         11.00033        14.90770        -0.64856
C          9.75497        14.18493        -0.94686
C         11.00683        16.36509        -0.66964
C          9.81223        17.06842        -0.85364
C         11.03426        19.21316        -0.51333
C          9.84254        18.50969        -0.73320
C         11.02899        20.66436        -0.40660
C          9.81288        21.38356        -0.38830
C         11.01481        23.48590         0.37108
C          9.79716        22.90353        -0.32220
C         11.00571        24.66360         1.05239
C          9.71016        25.35108         1.27415
C         10.94187        27.63420         1.97206
C          9.70050        26.84872         1.58786
C         11.09105        28.93893         1.21891
C          9.90990        29.58792         0.74444
C         13.64116         3.59268         0.64382
C         12.35191         4.22447         0.54165
C         13.58437         6.32540        -0.29413
C         12.37038         5.68924         0.26654
C         13.54117         7.70799        -0.71344
C         12.29217         8.45073        -0.68063
C         13.51023        10.56228        -1.09477
C         12.29114         9.88410        -0.92044
C         13.59389        12.00534        -1.10224
C         12.32225        12.76581        -1.14914
C         13.56961        14.92971        -0.77392
C         12.30851        14.17907        -0.67944
C         13.56829        16.29697        -0.61480
C         12.28812        17.03501        -0.21988
C         13.49801        19.21744        -0.53769
C         12.30313        18.52262        -0.47385
C         13.51230        20.66053        -0.38775
C         12.28891        21.33998        -0.24838
C         13.57283        23.45835         0.37704
C         12.28313        22.79732         0.00371
C         13.55161        24.78094         1.07031
C         12.25048        25.23274         1.74959
C         13.54578        27.52442         2.03406
C         12.23924        26.77250         2.01707
C         13.53902        28.97522         1.65110
C         12.30485        29.58508         1.21420
C         16.10411         3.61846         0.38431
C         14.81016         4.25374         0.28375
C         15.97594         6.14705        -0.89516
C         14.76208         5.58952        -0.28545
C         15.94764         7.62015        -1.26442
C         14.71537         8.38774        -1.06031
C         15.93325        10.48675        -1.52474
C         14.73994         9.82245        -1.18843
C         16.03629        11.97529        -1.52006
C         14.78210        12.69729        -1.18501
C         16.09633        14.89189        -0.85749
C         14.82907        14.11351        -0.63209
C         16.05129        16.32464        -0.73052
C         14.81727        17.00876        -0.64386
C         16.08570        19.22151        -0.80766
C         14.77233        18.47726        -0.77236
C         16.09519        20.74149        -0.64452
C         14.77888        21.34499        -0.14634
C         16.03088        23.25347         0.86764
C         14.78903        22.62163         0.37311
C         16.03193        24.73027         1.11983
C         14.72508        25.44165         1.22309
C         15.93044        27.60005         1.15137
C         14.87469        26.77499         1.91553
C         16.04841        29.02306         1.72212
C         14.70345        29.68237         1.55399
C         18.56388         3.56346         0.17212
C         17.28437         4.25136         0.05975
C         18.46571         6.29436        -0.70014
C         17.30087         5.59471        -0.52315
C         18.55626         7.62291        -1.46728
C         17.21165         8.34797        -1.43331
C         18.89491        10.75714        -1.41509
C         17.06656         9.65810        -1.82268
C         18.64926        12.06447        -0.99879
C         17.37441        12.76759        -1.31271
C         18.52334        14.87822        -0.54741
C         17.30036        14.19523        -0.87848
C         18.52590        16.30575        -0.48512
C         17.30650        17.04472        -0.65304
C         18.56019        19.14185        -0.35615
C         17.33251        18.45396        -0.57401
C         18.55639        20.56853        -0.09463
C         17.33700        21.22349         0.06796
C         18.63887        23.34892         0.61117
C         17.33315        22.53998         0.66763
C         18.52261        24.84516         0.39784
C         17.28562        25.51078         0.97201
C         18.44588        27.67144         0.74385
C         17.26316        26.88208         1.03400
C         18.33053        29.11070         0.65669
C         17.15197        29.76736         1.01570
C         19.71983         4.24702         0.05385
C         20.97513         6.36946        -0.49689
C         19.70195         5.75141        -0.00683
C         20.98274         7.69699        -0.79674
C         19.77931         8.45362        -0.99038
C         20.82721        10.52659        -0.01784
C         19.85250         9.87668        -0.83908
C         20.77661        11.89471         0.18866
C         19.69575        12.70102        -0.27275
C         20.88235        14.86032         0.10330
C         19.69712        14.14631        -0.20729
C         20.92309        16.23579         0.02688
C         19.75655        16.99331        -0.26725
C         21.01053        19.16421        -0.21612
C         19.77973        18.42819        -0.27816
C         21.02715        20.53047        -0.15753
C         19.81654        21.28787        -0.01914
C         20.97138        23.53645        -0.19155
C         19.82720        22.69179         0.07828
C         20.98973        24.85963         0.10914
C         19.82614        25.55481         0.79508
C         20.80307        27.83453         0.15829
C         19.70172        27.05157         0.51543
C         20.67412        29.22984        -0.02029
C         19.47268        29.86000         0.21959
O          9.41332         8.31124         1.27042
O         15.81013         6.54282        -2.28832
O         12.89823        27.11996         3.27394
O         16.79121        12.56640        -2.63352
O          2.22298        10.06281         1.72152
O          3.92109        24.97803         1.73627
O          6.47323        19.14347        -2.22968
O          9.85735         4.56072        -0.97318
O         18.14706        10.25582        -2.47956
O         11.64671        14.33026         0.64364
O          1.43687        23.07729         0.86313
O          6.02773        10.94047        -2.20322
O          0.98940        10.78223        -1.74052
O          3.67017        27.64191         1.54363
O          1.63439        18.65023        -2.13511
O         11.76518         6.38563         1.43028
O         18.19198        22.73184         1.83518
O          4.36532        21.16893        -1.94862
O         15.41504        18.86857        -2.06548
O          4.60813         9.09178         2.08129
O         13.02583        23.57393        -1.01236
O          4.65273         6.70025         2.98475
O         15.98482        23.75143         2.25254
O         11.66467        12.50794        -2.43622
O          9.45816        25.84754         2.62879
O          3.82360         2.59876         2.55913
H          3.68670         2.38485         1.61385
O          5.98174        28.21027         2.45511
H          5.02884        28.37404         2.64876
O         15.42965        27.71961        -0.20664
H         16.02089        28.33541        -0.69019
O         15.33119        26.51408         3.25230
H         16.00100        25.79847         3.23117
O          9.89659        23.36084        -1.71902
H         10.79206        23.12084        -2.04508
O         18.84727         7.27531        -2.85114
H         18.71320         8.08536        -3.38909
O         16.22811        21.30250        -1.98718
H         15.75508        20.68406        -2.59350
O          6.05477        25.10371        -1.18936
H          6.86002        24.66928        -1.54689
O          1.40636         7.52162        -0.66701
H          0.60697         7.02982        -0.94959
O          6.06325        14.94605        -3.08436
H          5.16021        15.25039        -3.35277
O         19.98597        25.40354         2.22494
H         20.78896        25.89140         2.50013
O          2.52328        17.08797         1.06846
H          2.55538        16.18313         1.44410
O          3.31829        15.00160        -2.89521
H          3.12047        14.10036        -3.23492
O         14.89245        13.84996         0.83947
H         13.97083        13.77928         1.17478
O         12.27991        24.59134         3.04376
H         12.78608        25.19339         3.64129
O          8.05037         6.27264        -1.48431
H          8.37592         5.39713        -1.80606
O          5.90086        23.10226         1.92539
H          5.11355        23.60661         2.25612
O         19.58577         6.20271         1.39935
H         18.84313         5.70464         1.80355
O          5.92806        20.32300         1.25424
H          5.96226        21.19426         1.72667
O          8.94507        19.57997        -2.58476
H          8.07891        19.76603        -3.02014
O         16.41433        28.93744         3.12256
H         16.22521        29.80096         3.54275
O         12.27680        16.93258         1.25158
H         12.07458        15.98502         1.45700
O         18.37742        24.97223        -1.04606
H         18.36404        25.92766        -1.26820
O         10.66528        28.07904         3.32106
H         10.40456        27.28456         3.83739
O          3.44109        11.50313        -2.60773
H          4.30976        11.08499        -2.83390
H          1.46298         2.88909         2.78613
H         -0.74290         3.90968         2.18376
H         -0.84152         6.21852         1.29403
H         -0.92496         8.24988         1.33595
H         -1.07542        10.47811         0.34725
H         -1.19060        12.22926        -0.92403
H         -1.15565        14.66666        -0.80904
H         -1.08199        16.50266        -0.17481
H         -1.10163        18.92262        -0.25405
H         -1.06565        20.86336        -1.20240
H         -1.06457        23.30005        -1.27243
H         -0.74772        25.21448        -1.71502
H         -0.46747        27.63333        -2.15365
H          0.84026        29.68928        -1.99482
H          4.08171         4.22235         3.78871
H          2.92417        30.88420        -1.42429
H          6.19172         2.74678         1.90977
H          5.27344        30.75607        -0.74581
H          8.55324         2.60865         1.33719
H          7.63171        30.66198        -0.20474
H         11.16381         2.55486         1.18322
H         10.00674        30.60514         0.33424
H         13.69555         2.54800         0.98583
H         12.36707        30.60080         0.79169
H         16.14231         2.58837         0.77074
H         14.66444        30.73708         1.23495
H         18.55951         2.47419         0.32760
H         17.12286        30.86825         0.98116
H         20.68971         3.73370         0.13382
H         21.91454         5.80399        -0.41286
H         21.94671         8.21349        -0.93464
H         21.62561         9.93589         0.45243
H         21.57137        12.36117         0.78681
H         21.79705        14.31162         0.36452
H         21.87016        16.74854         0.23937
H         21.96567        18.62330        -0.24900
H         21.99160        21.05646        -0.13064
H         21.86707        23.08077        -0.64068
H         21.91552        25.42492        -0.07468
H         21.78602        27.37329        -0.00740
H         21.55107        29.81342        -0.33343
H         19.38368        30.95080         0.11558
