         429
 CSIRO Nanostructure Databank - Neutral Graphene Oxide Data Set
C          1.31624         2.74848        -1.90461
C          1.20031         4.02238        -1.31215
C          2.52523         2.08087        -1.92432
C          2.29838         4.65458        -0.72264
C          0.98728         6.68169        -0.11557
C          0.90840         7.99200         0.31779
C          2.22204         5.98968        -0.15674
C          2.08850         8.68474         0.67428
C          2.30319         9.94661        -2.92225
C          2.29264        11.32414        -3.20609
C          3.24321         9.43490        -2.03175
C          3.28535        12.15511        -2.70304
C          2.13193        14.31859        -3.49506
C          2.17606        15.65263        -3.74891
C          3.35725        13.57084        -3.16653
C          3.35858        16.44688        -3.49638
C          3.35446        17.86089        -3.73328
C          3.67504         2.65678        -1.31689
C          3.56410         3.96431        -0.69569
C          4.91107         1.98721        -1.36603
C          4.67153         4.54433        -0.06692
C          3.40487         6.65854         0.28504
C          3.34548         8.02434         0.62863
C          4.66746         5.91608         0.39017
C          4.59871         8.84663         0.88104
C          4.14884        10.28628        -1.31231
C          4.27144        11.63555        -1.79768
C          5.00313         9.81502        -0.25782
C          5.35664        12.44533        -1.34674
C          4.58087        14.38857        -2.82331
C          4.47815        15.85777        -2.89375
C          5.72897        13.74118        -2.05677
C          5.53311        16.67294        -2.37857
C          4.42335        18.64189        -3.37692
C          5.53652        18.09078        -2.65869
C          6.04299         2.48690        -0.69510
C          5.87211         3.70981         0.12398
C          7.27449         1.82564        -0.69297
C          7.06801         4.29155         0.81628
C          5.80878         6.51305         0.91554
C          5.78115         7.94585         1.41118
C          7.01145         5.70000         1.40766
C          7.12694         8.62778         1.21113
C          6.12669        10.59437         0.08143
C          6.28461        11.90330        -0.45382
C          7.21864         9.95981         0.83363
C          7.33394        12.76990         0.12513
C          6.51643        14.71444        -1.19520
C          6.50223        16.11238        -1.51556
C          7.47052        14.16542        -0.34417
C          7.47042        17.02551        -0.91345
C          6.62146        18.89296        -2.27319
C          7.67609        18.37159        -1.47886
C          8.43545         2.35678        -0.07168
C          8.38359         3.65337         0.58591
C          9.68433         1.73872        -0.26177
C          9.53399         4.29437         0.98178
C          8.34220         6.42482         1.32512
C          8.34514         7.88508         1.71724
C          9.53413         5.71694         1.28181
C          9.65594         8.55976         1.41300
C          8.47355        10.65448         0.99041
C          8.46702        12.12257         0.89696
C          9.68071         9.96137         1.24194
C          9.74485        12.89620         1.21112
C          8.66479        14.88619         0.02408
C          8.70022        16.35252        -0.20470
C          9.78053        14.25308         0.52368
C          9.95096        17.04469        -0.36107
C          8.85076        19.07877        -1.18797
C         10.02715        18.41499        -0.70468
C         10.87240         2.28447         0.26583
C         10.77129         3.46760         1.21203
C         12.11241         1.70157         0.01844
C         12.04627         4.26411         1.27834
C         10.81498         6.39100         1.41851
C         10.85837         7.80509         1.45377
C         12.05301         5.63824         1.43655
C         12.13279         8.49024         1.50649
C         10.95978        10.66240         1.20764
C         11.00281        12.06528         1.03329
C         12.16498         9.91890         1.35557
C         12.24903        12.71274         0.90393
C         11.06963        14.97017         0.46703
C         11.15221        16.16231        -0.47787
C         12.32176        14.17492         0.63343
C         12.45290        16.90349        -0.36299
C         11.30962        19.05260        -0.69567
C         12.51181        18.32866        -0.47156
C         13.33401         2.25170         0.49027
C         13.30244         3.44471         1.41912
C         14.55149         1.67225         0.19073
C         14.57143         4.25643         1.39895
C         13.31655         6.34475         1.68664
C         13.32153         7.76542         1.71830
C         14.53164         5.62052         1.77190
C         14.57729         8.51240         2.12174
C         13.43002        10.59561         1.30479
C         13.44601        11.98522         1.01610
C         14.64964         9.90946         1.57065
C         14.73934        12.69554         1.02562
C         13.54831        14.64776        -0.12487
C         13.61693        16.14938        -0.26694
C         14.79086        14.11081         0.55716
C         14.87801        16.78342        -0.31848
C         13.79299        18.95942        -0.34273
C         14.95878        18.20328        -0.24867
C         15.79493         2.27272         0.57912
C         15.78654         3.60726         1.13231
C         17.00316         1.62308         0.32879
C         17.04568         4.29078         1.35180
C         15.79293         6.26621         2.32114
C         15.87475         7.74545         1.98615
C         17.06512         5.56395         1.91980
C         17.07595         8.40828         1.95164
C         15.91260        10.55162         1.47177
C         15.99767        11.93453         1.09467
C         17.12578         9.83538         1.69009
C         17.22332        12.56972         0.88548
C         16.07235        14.68506         0.10872
C         16.08586        15.96957        -0.34908
C         17.32147        13.84367         0.07150
C         17.41020        16.40038        -0.91116
C         16.33000        18.68561         0.08387
C         17.28335        18.92583        -0.85854
C         18.25897         2.23313         0.60902
C         18.27355         3.57666         1.11328
C         19.46251         1.54879         0.31720
C         19.51374         4.25188         1.30195
C         18.34700         6.16499         2.42382
C         18.35609         7.77621         2.48203
C         19.55815         5.56420         1.75587
C         19.61926         8.44820         1.97940
C         18.36871        10.54340         1.67723
C         18.43023        11.92748         1.27658
C         19.58633         9.86246         1.91933
C         19.66855        12.65005         1.26824
C         18.55044        14.67666         0.37020
C         18.57874        16.02287        -0.04374
C         19.70043        14.04393         0.89552
C         19.70181        16.85096         0.19998
C         18.71563        19.12342        -0.57962
C         19.71836        18.29133        -0.09218
C         20.73185         2.13194         0.52950
C         20.77076         3.47711         1.13924
C         21.93259         1.50871         0.18258
C         22.08942         4.19226         1.17022
C         20.78291         6.35305         1.52435
C         20.84178         7.78233         1.85598
C         22.06176         5.68014         1.14098
C         22.10727         8.48575         1.81658
C         20.82764        10.62864         2.25803
C         20.87512        12.03815         1.70839
C         22.10472         9.85836         2.01302
C         22.07068        12.76231         1.76926
C         20.90038        14.80821         1.01999
C         20.88339        16.21472         0.71847
C         22.10641        14.15640         1.42927
C         22.08851        16.95721         0.90220
C         20.95775        18.98481         0.17302
C         22.07425        18.37673         0.67551
C         23.20471         2.17614         0.23116
C         23.28645         3.54561         0.62306
C         24.38720         1.53502        -0.18113
C         24.48874         4.28155         0.55662
C         23.35343         6.39622         1.24454
C         23.36702         7.76767         1.57664
C         24.53624         5.69008         0.92231
C         24.62384         8.43720         1.63522
C         23.35163        10.58694         2.28442
C         23.31551        12.09294         2.24301
C         24.66756         9.85025         2.09495
C         24.63053        12.82339         2.09848
C         23.33814        14.89365         1.44258
C         23.31367        16.29641         1.20239
C         24.60239        14.24068         1.64613
C         24.54863        17.04593         1.18341
C         23.25470        19.22477         1.07644
C         24.55046        18.46052         1.08176
C         25.62351         2.22400        -0.19613
C         25.67971         3.61573         0.16718
C         26.81168         1.55242        -0.56361
C         26.92854         4.31685         0.15772
C         25.78136         6.38302         0.91979
C         25.80992         7.75205         1.30754
C         26.99207         5.69193         0.54441
C         27.12702         8.42819         1.43797
C         25.88963        10.66201         1.85204
C         25.87613        12.02499         1.89716
C         27.17255         9.92105         1.70980
C         27.15831        12.77607         1.84563
C         25.79229        14.94591         1.49900
C         25.79099        16.35801         1.24771
C         27.09846        14.27596         1.69468
C         27.01418        17.08880         1.15815
C         25.75338        19.16355         1.08456
C         26.98710        18.49108         1.11453
C         28.05084         2.22437        -0.59342
C         28.10507         3.62264        -0.24691
C         29.24106         1.54106        -0.93062
C         29.34817         4.30935        -0.30025
C         28.25192         6.37392         0.52635
C         28.33312         7.78623         0.86290
C         29.40525         5.67133         0.11824
C         29.49468         8.53172         0.68178
C         28.38059        10.66952         1.29589
C         28.38747        12.07487         1.39938
C         29.52638         9.97805         0.83409
C         29.55337        12.80790         1.08699
C         28.31849        14.98027         1.25780
C         28.29288        16.38241         1.09644
C         29.53033        14.27128         1.12555
C         29.49242        17.08463         0.85333
C         28.27424        19.27319         1.22238
C         29.43520        18.55778         0.51459
C         30.48342         2.21087        -0.99096
C         30.53163         3.61904        -0.71713
C         31.68115         1.51160        -1.29154
C         31.75753         4.33571        -0.91061
C         30.71353         6.33375         0.13369
C         30.76776         7.84461         0.37557
C         31.80706         5.70881        -0.61263
C         31.91408         8.59779        -0.17176
C         30.68464        10.73149         0.47042
C         30.70685        12.12328         0.61266
C         31.83372        10.06262        -0.19436
C         31.90528        12.96077         0.16204
C         30.73093        14.99165         0.97925
C         30.72671        16.39492         0.86050
C         31.98950        14.17145         1.11607
C         31.98681        17.12356         0.69733
C         30.73925        19.25826         0.73703
C         31.96336        18.59089         0.69073
C         32.92320         2.17644        -1.37695
C         32.95713         3.61634        -1.27070
C         34.13742         1.46759        -1.53580
C         34.18664         4.28454        -1.37335
C         32.94797         6.51863        -1.00155
C         33.04232         7.95551        -0.65145
C         34.21772         5.75031        -1.40284
C         34.29451         8.65167        -0.89377
C         33.12959        10.82025        -0.46331
C         33.22803        12.20861         0.02252
C         34.37476        10.06150        -0.70315
C         34.45107        12.83276         0.07158
C         33.26829        14.98204         0.93678
C         33.18636        16.44560         0.68313
C         34.50726        14.26448         0.50215
C         34.41435        17.15300         0.28416
C         33.17845        19.31729         0.75626
C         34.42241        18.69727         0.35120
C         35.38428         2.13218        -1.56647
C         35.41059         3.57169        -1.50953
C         36.61350         1.42892        -1.60445
C         36.63979         4.27719        -1.60671
C         35.49576         6.44745        -1.26561
C         35.49608         7.88862        -1.09989
C         36.66028         5.70576        -1.43964
C         36.72498         8.57082        -1.16109
C         35.60060        10.77507        -0.83467
C         35.67539        12.19986        -0.45262
C         36.74822         9.97922        -1.16730
C         36.85067        12.97277        -0.46818
C         35.70284        15.08046         0.18949
C         35.71513        16.44723         0.30761
C         36.94724        14.32010         0.15128
C         36.94475        17.19695         0.13761
C         35.73343        19.34480         0.45751
C         36.91113        18.66261         0.22173
C         37.84399         2.11139        -1.61875
C         37.86840         3.54635        -1.70583
C         39.08693         1.41316        -1.49139
C         39.12392         4.21281        -1.76299
C         37.92659         6.43209        -1.67401
C         38.03654         7.80189        -1.04110
C         39.17593         5.67404        -1.97533
C         39.30197         8.52169        -1.47919
C         37.99197        10.53426        -1.62046
C         38.04943        12.64933        -1.19853
C         39.24166         9.95661        -1.54725
C         39.32440        13.08349        -0.96588
C         38.26907        15.08951         0.11427
C         38.15375        16.54481        -0.05533
C         39.58707        14.36925        -0.21045
C         39.26345        17.31659        -0.72930
C         38.16847        19.36382         0.17698
C         39.33836        18.74101        -0.22586
C         40.27050         2.10183        -1.34315
C         40.30843         3.52144        -1.45781
C         41.50968         4.27916        -1.13025
C         40.54019         6.36090        -2.07271
C         40.46590         7.86720        -1.83713
C         41.58887         5.61963        -1.28053
C         41.58877         8.66057        -2.30031
C         40.49950        10.76401        -1.62223
C         40.52975        12.28421        -1.36482
C         41.62211        10.01982        -2.24062
C         41.67537        13.12307        -1.77674
C         40.61520        15.20232        -0.95983
C         40.59656        16.60374        -0.84895
C         41.68433        14.47910        -1.58571
C         41.74264        17.40484        -1.02574
C         40.56760        19.43935        -0.35262
C         41.71988        18.78756        -0.78205
O          4.43477        13.78338        -4.16457
O         31.13952         6.89101         1.43152
O         34.26259        17.93956        -0.92772
O         38.33550         6.21857        -3.06989
O         14.71112        13.85576         1.98110
O         33.32903         6.31975        -2.41551
O          7.63309        17.00970         0.52988
O          6.15283         3.41017         1.55930
O         17.56571        16.66555        -2.10152
O         18.41919         8.15827         3.83155
O         32.11077        10.65480        -1.52742
O         37.90094        11.76190        -2.27123
O         11.85871        15.06031         1.68875
O         21.20661         6.18962         0.06589
O         27.30378        13.64801         3.01649
O          4.33114         9.76984         1.91990
O         34.24359        14.54856         1.95128
O         37.73925        14.53370         1.37117
O         23.96364        12.68673         3.40212
O          7.32178        12.70862         1.60536
O         24.09018        10.04316         3.42491
O         27.38558         8.95757         2.78975
O         38.19342         7.59583         0.35012
O         21.57906         3.55536         2.38301
O         40.88040        11.31727        -0.29559
O         11.09239        15.57043        -1.82332
H         11.19807        16.29505        -2.47524
O          8.22919         7.91767         3.18222
H          7.29247         7.64640         3.38901
O         15.66704         6.16116         3.78768
H         16.59307         6.05855         4.13811
O          6.77024         5.54121         2.83544
H          6.19635         4.74429         2.93205
O         38.83773        17.42533        -2.14210
H         38.05874        18.02245        -2.16884
O          5.56556         7.87189         2.84334
H          5.03804         8.70750         3.03376
O         10.57355         2.89110         2.54756
H         11.45230         2.53745         2.83785
O          6.71605        13.33207        -3.05959
H          6.20202        13.15364        -3.88431
O         40.95442         6.20331        -3.46374
H         40.15408         6.37801        -4.00923
O          1.97603         9.96673         1.04150
H          2.86437        10.24337         1.44208
O         40.24573        14.07651         1.04481
H         39.54436        13.79666         1.67693
O         31.96361        13.63702         2.45770
H         32.87856        13.71330         2.82143
O         13.48634        14.03398        -1.43900
H         14.16672        14.45086        -2.00774
O         28.58501        19.45743         2.61169
H         28.55595        18.58437         3.05504
O         14.45679         8.67344         3.58403
H         14.78759         7.83363         3.99456
O          9.70580        13.19046         2.63446
H          8.77262        13.41871         2.85060
O          3.40157         8.08913        -1.94662
H          2.71083         7.64067        -2.47337
O         18.38454         5.75538         3.82582
H         18.57220         6.61597         4.32962
O         31.61468        13.44909        -1.17266
H         31.60518        12.65727        -1.76142
O         16.90552        19.16457        -2.14831
H         17.68987        19.14782        -2.73041
O         23.35341        20.39978         0.26514
H         23.58387        20.12540        -0.64576
O         29.13948        18.65791        -0.91869
H         29.88143        18.24092        -1.40596
O         13.26503         2.86450         2.78598
H         13.44621         3.59414         3.41819
O         20.73030        10.78112         3.72136
H         20.26052         9.99353         4.07997
O         17.46601        13.37176        -1.31636
H         17.67268        14.15333        -1.87526
H          0.42907         2.29054        -2.36427
H          0.21872         4.51326        -1.33372
H          2.61039         1.09245        -2.39731
H          0.06312         6.17165        -0.41818
H         -0.05727         8.51170         0.36151
H          1.61126         9.26760        -3.43912
H          1.54298        11.71942        -3.90513
H          1.17576        13.77898        -3.55391
H          1.26129        16.18174        -4.05554
H          2.48367        18.30940        -4.23307
H          4.98728         1.03846        -1.91777
H          4.42104        19.71925        -3.59699
H          7.36526         0.87589        -1.24141
H          6.65880        19.94405        -2.59619
H          9.74351         0.83329        -0.88508
H          8.94376        20.11987        -1.53236
H         12.15762         0.78248        -0.58735
H         11.36427        20.13575        -0.88107
H         14.58115         0.74917        -0.40776
H         13.84249        20.05701        -0.30350
H         16.99063         0.61293        -0.10622
H         16.65726        18.49860         1.11811
H         19.40343         0.53949        -0.11681
H         19.06003        20.14299        -0.83735
H         21.90371         0.48309        -0.21512
H         20.98958        20.07183         0.00356
H         24.35836         0.47882        -0.48626
H         23.06547        19.58706         2.12766
H         26.76931         0.48491        -0.82441
H         25.73111        20.26236         1.04768
H         29.19681         0.46585        -1.15676
H         28.14928        20.29004         0.77630
H         31.64181         0.42087        -1.42824
H         30.73364        20.35852         0.76133
H         34.11188         0.36916        -1.59557
H         33.16239        20.38078         1.03437
H         36.60547         0.32897        -1.57398
H         35.76658        20.42318         0.67457
H         39.07416         0.31499        -1.43584
H         38.17855        20.43758         0.41912
H         41.20632         1.55708        -1.15242
H         42.33836         3.72751        -0.66004
H         42.48954         6.16370        -0.96044
H         42.44353         8.11734        -2.72976
H         42.52057        10.56203        -2.56927
H         42.55056        12.64187        -2.23744
H         42.54116        15.05090        -1.97387
H         42.71063        16.92886        -1.23712
H         40.60427        20.50719        -0.09175
H         42.65567        19.35659        -0.87390
