         648
 CSIRO Nanostructure Databank - Neutral Graphene Oxide Data Set
C          5.86552        31.63189        -0.00561
C          5.85611        32.99602        -0.16094
C          8.50749        27.44230        -0.08527
C          8.42997        28.80615         0.14911
C          7.17004        29.50830         0.22721
C          8.30520        31.68028         0.27157
C          7.09196        30.90444         0.20551
C          8.30192        33.03280         0.00811
C          7.07131        33.76796        -0.15085
C          8.26844        35.95328        -0.03394
C          7.08491        35.17570        -0.21190
C          8.28049        37.34992        -0.06562
C         11.05853        23.21519        -0.63830
C         10.95510        24.60440        -0.29611
C          9.85537        25.33893        -0.67316
C         11.10909        27.54836        -0.26899
C          9.75055        26.84602        -0.69210
C         10.89478        28.92716         0.34746
C          9.66482        29.55523         0.33810
C         10.79230        31.76278         0.57096
C          9.52816        30.98843         0.81440
C         10.81842        33.05285         0.18934
C          9.57453        33.79516        -0.24111
C         10.80515        35.93266         0.15548
C          9.51140        35.19094         0.39194
C         10.75902        37.38223        -0.16159
C          9.48858        38.13318        -0.03243
C         10.77420        40.29296        -0.05827
C          9.54277        39.52356        -0.01448
C         10.79193        41.70582        -0.01004
C         13.44748        18.93911        -0.33577
C         13.40257        20.32546        -0.28645
C         12.25711        21.06350        -0.67581
C         13.39746        22.98734         0.32944
C         12.18603        22.44337        -0.37411
C         13.31930        24.44196         0.78354
C         12.05993        25.21576         0.49585
C         13.31305        27.45709         0.98797
C         12.03957        26.71850         0.63021
C         13.31994        28.93393         0.85230
C         12.09672        29.60679         0.75742
C         13.28122        31.84544         1.23213
C         12.01971        31.05899         1.01650
C         13.32128        33.21880         0.69691
C         12.11868        33.77834        -0.03273
C         13.27517        36.00011         0.26955
C         11.99160        35.27336         0.19595
C         13.30612        37.47612         0.12703
C         12.03416        38.15415        -0.24796
C         13.26333        40.29965        -0.20631
C         12.02845        39.61991        -0.14489
C         13.25790        41.73457        -0.24170
C         11.99687        42.44491        -0.11337
C         13.18076        44.61710        -0.29910
C         12.01087        43.86566        -0.06305
C         13.26632        46.00627        -0.09852
C         15.88930        14.66314         0.02155
C         15.85685        16.05320        -0.00884
C         14.64506        16.79322        -0.11850
C         15.81031        18.89596         0.39514
C         14.62654        18.19515         0.00842
C         15.73898        20.34082         0.87216
C         14.49614        21.12676         0.37770
C         15.83166        23.21266         0.06762
C         14.72035        22.49608        -0.21717
C         15.72454        24.72287         0.07296
C         14.64190        25.20125         1.06935
C         15.77484        27.46723         0.87851
C         14.59886        26.74269         0.99474
C         15.78512        28.93323         0.94567
C         14.55877        29.62587         1.00615
C         15.86661        31.83423         1.22094
C         14.56692        31.07143         1.31172
C         15.83930        33.37691         1.14068
C         14.51143        33.91414         0.51947
C         15.71084        35.90069        -0.54453
C         14.51065        35.23767         0.05839
C         15.69514        37.42126        -0.50267
C         14.56605        38.14936        -0.26635
C         15.71509        40.31097        -0.54529
C         14.51716        39.60270        -0.35297
C         15.70626        41.74966        -0.59363
C         14.45795        42.42779        -0.44853
C         15.66956        44.62887        -0.97769
C         14.39656        43.87785        -0.71696
C         15.65532        46.15737        -1.00941
C         14.45190        46.77001        -0.29050
C         15.66728        48.93304        -0.05423
C         14.47880        48.12757         0.02030
C         15.67193        50.28891         0.19665
C         18.36284        10.36898        -0.57708
C         18.31802        11.81403        -0.61462
C         17.18920        12.49278        -0.24316
C         18.22993        14.76359        -0.72827
C         17.21995        13.96013         0.11364
C         18.32933        16.16443        -0.17325
C         17.10353        16.81206         0.06234
C         18.30064        18.92311         0.38938
C         17.05468        18.21443         0.33762
C         18.25427        20.37874         0.47884
C         17.05392        21.04860         0.55615
C         18.29229        23.19967         0.14241
C         17.04573        22.55002         0.67084
C         18.28450        24.70616         0.08133
C         17.03610        25.42042         0.34707
C         18.30736        27.47087         0.68945
C         17.05341        26.76347         0.67318
C         18.30197        28.92390         0.88939
C         17.02008        29.67101         0.86513
C         18.26539        31.82985         0.54873
C         17.06596        31.07735         0.81487
C         18.25698        33.22198         0.45476
C         17.03298        33.98311         0.40749
C         18.23343        36.03691        -0.32176
C         17.01636        35.27633        -0.08244
C         18.19624        37.38294        -0.62237
C         16.93034        38.10805        -1.02677
C         18.13770        40.30151        -0.85811
C         16.95584        39.60138        -0.75235
C         18.17159        41.74627        -0.76283
C         16.92586        42.46666        -0.73357
C         18.13633        44.61693        -0.65414
C         16.95261        43.90859        -0.78042
C         18.14662        46.06348        -0.50646
C         16.96504        46.77703        -0.57702
C         18.22125        48.97408        -0.37256
C         16.92507        48.25509        -0.48306
C         18.23812        50.31368         0.29739
C         16.92533        51.05302         0.42598
C         18.22992        53.20387         0.40148
C         17.00551        52.51410         0.36548
C         18.29757        54.62034         0.28135
C         20.76709         6.18479         0.29898
C         20.72809         7.59085         0.12818
C         19.57178         8.24123        -0.29056
C         20.84972        10.33357        -0.77595
C         19.54343         9.65065        -0.54668
C         20.88220        11.82248        -0.86267
C         19.57683        12.56176        -0.91577
C         20.84678        14.75329        -0.52247
C         19.57843        14.05574        -0.86763
C         20.83529        16.12742        -0.24280
C         19.56466        16.84574        -0.09435
C         20.77217        19.01806         0.12089
C         19.51602        18.24520         0.18561
C         20.76292        20.43241         0.52080
C         19.52857        21.10841         0.49686
C         20.76141        23.23102         0.49501
C         19.55473        22.51074         0.40737
C         20.75747        24.66881         0.36836
C         19.56812        25.38707         0.26484
C         20.76028        27.52982         0.25317
C         19.53406        26.81944         0.43324
C         20.79232        28.92310         0.20240
C         19.58447        29.67007         0.61114
C         20.80204        31.77242         0.08014
C         19.47279        31.06652         0.05383
C         20.84825        33.21359         0.27845
C         19.52336        33.98680         0.40878
C         20.71741        36.00677        -0.36432
C         19.52508        35.37892        -0.07146
C         20.65857        37.34518        -1.06711
C         19.47513        38.18293        -0.54569
C         20.64668        40.32958        -0.93793
C         19.39053        39.55823        -1.25438
C         20.64198        41.70315        -0.72087
C         19.39353        42.42805        -0.72647
C         20.46947        44.50498         0.28868
C         19.47677        43.93250        -0.74994
C         20.59664        46.01694         0.05540
C         19.44698        46.71921        -0.27190
C         20.77392        48.91331        -0.07018
C         19.50123        48.18803        -0.42430
C         20.72764        50.36393         0.29132
C         19.50665        51.07289         0.30906
C         20.72137        53.17923         0.59138
C         19.48779        52.47069         0.47306
C         20.75217        54.59763         0.49665
C         19.53200        55.32065         0.25403
C         20.85932        57.34902        -0.21262
C         19.61133        56.70835        -0.02735
C         20.95056        58.75017        -0.51706
C         23.11823         3.40592         1.13918
C         21.93734         4.09185         0.81300
C         23.11475         6.27088         1.21933
C         21.90957         5.49794         0.72004
C         23.21448         7.65247         0.63934
C         21.93258         8.43787         0.50415
C         23.32499        10.41615        -0.18353
C         22.12576         9.55019        -0.52606
C         23.34457        11.83750        -0.33776
C         22.12141        12.58704        -0.58317
C         23.34058        14.73335        -0.42580
C         22.07113        13.98240        -0.50413
C         23.30530        16.15856        -0.06907
C         22.10095        16.82128        -0.01488
C         23.28451        19.02838         0.54904
C         22.09531        18.30403         0.07076
C         23.24964        20.41016         0.81202
C         21.98102        21.13382         0.71671
C         23.16391        23.32260         1.14654
C         21.96043        22.54112         0.79275
C         23.18846        24.75146         0.77813
C         22.02596        25.36829         0.41144
C         23.25262        27.53235        -0.00284
C         21.98285        26.75649        -0.16210
C         23.21421        28.89267        -0.21685
C         21.97247        29.62152        -0.18252
C         23.19223        31.79725        -0.48368
C         21.96740        31.06868        -0.25405
C         23.22979        33.19081        -0.37350
C         22.05486        33.93876        -0.10791
C         23.19860        36.06702        -0.53497
C         22.00369        35.34599        -0.27980
C         23.16032        37.45237        -0.88317
C         21.94922        38.11578        -0.98092
C         23.16766        40.35426        -0.67221
C         21.88611        39.57280        -0.76734
C         23.12126        41.82313        -0.58612
C         21.87277        42.43179        -0.46201
C         23.09484        44.45196         0.53647
C         21.80082        43.74782         0.21268
C         22.97550        45.91605         1.03343
C         21.83948        46.70595         0.37692
C         23.11250        48.83162         0.79076
C         21.89929        48.08407         0.39364
C         23.17857        50.29181         0.45395
C         21.92354        51.05500         0.54560
C         23.18056        53.17246         0.98899
C         21.95044        52.46417         0.70173
C         23.22146        54.58640         0.86932
C         22.01091        55.27093         0.48396
C         23.35216        57.15891        -0.38913
C         22.05585        56.60256         0.00749
C         23.42060        58.64211        -0.77485
C         22.16910        59.41617        -0.66953
C         23.53410        61.45067        -0.77560
C         22.28302        60.83134        -0.72137
C         24.33496         4.07614         1.26003
C         25.61200         6.15720         0.98845
C         24.40503         5.48788         1.12650
C         25.67098         7.56375         0.73222
C         24.42065         8.28290         0.49031
C         25.72990        10.39063         0.29725
C         24.48511         9.71424         0.17795
C         25.76359        11.80286         0.18344
C         24.56945        12.51486        -0.10688
C         25.83047        14.68534         0.30052
C         24.64822        13.97558        -0.25895
C         25.80918        16.04465         0.50128
C         24.60953        16.85277         0.13101
C         25.71821        18.91758         1.24976
C         24.57178        18.30736         0.50688
C         25.67526        20.41026         1.38496
C         24.43705        21.11991         1.15749
C         25.75750        23.33602         1.12396
C         24.47169        22.58831         1.34055
C         25.73902        24.72950         0.96641
C         24.45836        25.54860         1.02241
C         25.73416        27.60460         0.31652
C         24.52976        26.73571         0.00867
C         25.74605        29.02281        -0.11327
C         24.46217        29.60195        -0.59146
C         25.75041        31.78303        -0.79794
C         24.44627        31.09100        -0.77883
C         25.77644        33.20261        -0.71402
C         24.52664        33.89310        -0.30903
C         25.76850        36.15336        -0.50958
C         24.48963        35.41558        -0.27191
C         25.72507        37.54895        -0.96799
C         24.42424        38.18844        -1.14726
C         25.68613        40.41477        -0.89666
C         24.42659        39.70036        -1.11846
C         25.63222        41.79220        -0.54141
C         24.37304        42.49654        -0.38294
C         25.60238        44.52345         0.16917
C         24.37810        43.85358         0.04491
C         25.62139        45.90975         0.66591
C         24.35074        46.60805         1.03143
C         25.66833        48.80704         0.63364
C         24.37982        48.10706         1.06496
C         25.67845        50.22419         1.11610
C         24.47383        51.01168         0.80961
C         25.40969        52.80900         2.10343
C         24.34688        52.38306         1.30146
C         25.66007        54.89310         1.50257
C         24.47871        55.33969         0.85797
C         25.84078        57.17952        -0.04577
C         24.57459        56.53967         0.11767
C         25.88736        58.54899        -0.46379
C         24.72891        59.31355        -0.65215
C         24.73296        60.72898        -0.72095
C         26.88485         8.23593         0.68072
C         28.17676        10.33251         0.47394
C         26.95466         9.65434         0.49157
C         28.23557        11.75311         0.39294
C         27.01814        12.49529         0.32001
C         28.28714        14.55975         0.63891
C         27.05213        13.91267         0.45306
C         28.31033        15.94838         1.13110
C         26.99867        16.69713         1.10403
C         28.34390        18.95828         1.53966
C         27.00460        18.17433         1.40466
C         28.17495        20.31974         0.75721
C         27.00822        21.16484         1.27077
C         28.26642        23.27006         0.87273
C         26.97107        22.59970         1.03638
C         28.30939        24.74527         0.74977
C         27.01639        25.48569         0.87329
C         28.29093        27.57346        -0.05975
C         27.05730        26.93346         0.49730
C         28.25541        28.96144        -0.43109
C         27.02114        29.68205        -0.46209
C         28.19273        31.67969        -1.31793
C         26.95908        31.03369        -0.85920
C         28.17561        33.25289        -1.36586
C         26.95713        33.91287        -0.89548
C         28.17223        36.05627        -1.45103
C         27.02646        35.37487        -0.73771
C         28.16525        37.56350        -1.21645
C         26.90110        38.26548        -1.11305
C         28.14703        40.39825        -0.87787
C         26.91621        39.72135        -1.04893
C         28.11534        41.73571        -0.38539
C         26.85972        42.44255        -0.27630
C         28.07022        44.45775         0.42337
C         26.85925        43.83530         0.06944
C         28.17481        45.90749         0.47850
C         26.88726        46.68679         0.47079
C         28.08597        48.65255         1.40522
C         26.91958        48.06274         0.98698
C         28.07692        50.03542         2.06409
C         26.77546        50.77617         1.74886
C         28.42821        53.16727         1.68079
C         26.59597        52.08334         2.27125
C         28.17237        54.42498         1.08548
C         26.97482        55.24422         1.03481
C         27.01366        56.44660         0.28043
C         29.47452        12.45022         0.38086
C         30.72109        14.62422         0.33918
C         29.51124        13.84498         0.48302
C         30.75155        15.98798         0.53306
C         29.64909        16.68781         1.30647
C         30.70814        18.86068         0.64779
C         29.57527        18.18910         1.02879
C         30.65888        20.33774         0.29619
C         29.43731        21.12337         0.69307
C         30.71874        23.24117         0.34828
C         29.46950        22.48132         0.54221
C         30.71324        24.60527         0.14296
C         29.41133        25.32288        -0.12547
C         30.70296        27.48160        -0.52042
C         29.47969        26.84223        -0.14665
C         30.70591        28.88742        -0.82235
C         29.48016        29.61591        -0.79696
C         30.68592        31.68682        -1.44737
C         29.49314        31.00052        -1.16796
C         30.64555        33.15812        -1.69699
C         29.45673        33.91460        -1.27972
C         30.65660        36.10824        -1.64943
C         29.49687        35.39458        -0.98483
C         30.49823        37.46122        -1.79733
C         29.34276        38.23861        -1.38320
C         30.62072        40.17211        -0.29602
C         29.47699        39.75814        -1.25597
C         30.45464        41.47768         0.40122
C         29.28206        42.30792         0.16939
C         30.53868        44.37269         0.99536
C         29.21274        43.62237         0.91371
C         30.56317        45.77770         1.18361
C         29.37206        46.56580         1.03413
C         30.52537        48.59686         2.01045
C         29.31142        47.89206         1.45137
C         30.51410        50.05280         1.55057
C         29.36787        50.80743         1.60569
C         29.34737        52.20479         1.22397
C         31.87884        16.75684         0.10754
C         33.09476        18.82467        -0.33429
C         31.91422        18.13653         0.18793
C         33.53370        20.02315         0.17765
C         31.82563        21.15805         0.77649
C         33.32955        23.13960         0.70136
C         31.95206        22.49660         0.55452
C         33.28474        24.62666         0.20392
C         31.97894        25.35956         0.02569
C         33.10061        27.36594        -0.96805
C         31.92395        26.73145        -0.57373
C         33.11306        28.78094        -1.24160
C         31.91944        29.56011        -1.17278
C         33.17147        31.65279        -1.75527
C         31.94565        30.98400        -1.45616
C         33.24677        33.16678        -2.15528
C         31.91192        33.91204        -1.98844
C         33.22393        36.10526        -1.22442
C         31.96145        35.42436        -1.79680
C         33.16928        37.46100        -0.63749
C         32.22390        38.39551        -1.01800
C         32.84856        39.91370         0.87347
C         31.82109        39.49947        -0.17790
C         33.03447        41.45031         0.63332
C         31.70789        42.17256         0.93195
C         32.98365        44.27024         1.41419
C         31.72765        43.63368         1.08902
C         32.99798        45.66569         1.60307
C         31.80516        46.45217         1.51609
C         31.79729        47.82869         1.76308
C         34.50894        20.98803        -0.26261
C         35.69674        23.08862        -0.09925
C         34.47652        22.34530         0.04288
C         35.77919        24.46436        -0.24299
C         34.48135        25.15591        -0.56318
C         35.54227        27.29980        -1.55555
C         34.34484        26.56321        -1.14722
C         35.54935        28.68914        -1.69136
C         34.32737        29.44871        -1.53852
C         35.67462        31.38764        -2.02025
C         34.36030        30.85316        -1.80133
C         35.65839        33.55058        -1.73934
C         34.38928        33.92883        -1.46432
C         35.53841        35.83893        -0.21174
C         34.21842        35.14412        -0.57142
C         35.48627        37.16496         0.26166
C         34.23249        37.92373         0.24579
C         35.26842        39.72703         1.64937
C         34.15991        39.18355         0.78115
C         35.17616        41.21800         1.91438
C         34.16611        42.05491         1.49354
C         34.14298        43.46511         1.65598
C         37.03261        25.13295        -0.01805
C         38.44700        27.20353        -0.26056
C         37.42295        26.30237        -0.65512
C         38.64911        28.45079        -0.87846
C         36.81007        29.36185        -1.78201
C         38.01717        31.52331        -1.11138
C         36.88367        30.75691        -1.59779
C         37.74677        32.85978        -0.61432
C         36.80839        33.85306        -0.91587
C         37.98770        35.83648         0.13367
C         36.78610        35.14944        -0.25249
C         37.89045        37.18294         0.56199
C         36.67118        37.84236         0.65998
C         36.64028        39.30632         1.07855
C         39.45455        29.52288        -0.45534
C         40.47021        31.71686        -0.48291
C         39.26337        30.91779        -0.69152
C         40.63450        33.07132        -0.32670
C         39.52896        33.91489         0.03598
C         39.31337        35.26989        -0.03995
O         21.49641        18.87414        -1.16153
O         13.69640        21.92330         1.44399
O         23.62421        48.64481         2.17511
O         38.46179        33.15566         0.56401
O         18.18470        23.84881        -1.14937
O         27.46280        16.01762         2.32674
O         30.53137        20.38055        -1.12463
O         27.19385        26.53771         1.90331
O         15.35259        31.36460         2.50423
O         26.07426        18.33187         2.53962
O         26.43385        20.83066         2.56679
O         19.59760        13.35325        -2.16150
O         23.39832        57.59437        -1.79011
O         12.25855        27.11271         1.99553
O         20.32996        33.70632         1.58556
O         30.80601        41.50048         1.87455
O         31.57814        38.23164        -2.26559
O         28.65596        24.17322         2.03154
O         24.57266        34.63494         0.95673
O         11.42349        37.63524        -1.47943
O         22.58667        39.80529         0.55336
O         34.17435        25.32547        -1.96933
O         13.32018        36.91634         1.47253
O         17.61303        50.39946         1.61277
O         28.03442        32.40116        -2.55852
O         27.64807        52.79474         2.81684
O         37.93352        28.64252        -2.09795
O         24.03427        50.77273        -0.59853
O         32.81164        25.47498         1.28738
O         28.10575        49.83757         3.44515
O         20.95777        10.97878        -2.08933
O         32.98410        36.01051        -2.64921
O         36.68165        26.60447        -1.84883
O         31.04055        33.56775        -3.11594
O         24.33209        38.99063        -2.39040
O         33.40798        41.64190        -0.67337
O         12.39287        31.53132         2.36439
O         20.40589        48.66169        -1.47496
O         25.55614        28.64921         1.30883
O         12.29867        24.58680         1.80623
O         26.75804        35.93580         0.58334
O         24.38980        30.13053        -1.93104
O         11.84376        27.76731        -1.44958
O         25.18899        46.03093         2.08462
O         32.86991        20.44986         1.35203
O         35.86270        32.55179        -2.71679
O         27.60853        46.51339        -0.77668
O         19.18828        29.43157         1.97503
O         22.44551        43.58876         1.52588
O         15.84087        33.89764         2.40361
O         23.69389        23.06319         2.50308
O         24.92599        17.89405        -0.86903
O         25.44684        54.10617         2.64200
O         14.87487        44.11664        -2.10796
O         17.52405        48.95264        -1.65387
O         27.98838        35.81009        -2.85721
H         28.79979        36.08366        -3.33564
O         24.72395        26.17121        -1.31106
H         23.83338        26.04796        -1.72164
O         15.67606        35.56842        -2.00519
H         14.73409        35.49866        -2.27558
O          9.32778        30.94226         2.26183
H         10.20961        30.92321         2.69432
O         24.34481        26.13205         2.33519
H         24.39889        25.40830         2.99585
O         33.57448        34.74180         0.67435
H         34.26626        34.43604         1.29747
O         33.68166        23.19519         2.09569
H         33.14605        23.91858         2.49521
O         28.97878        24.96920        -1.48460
H         29.70396        25.18486        -2.10831
O         19.70340        38.49691         0.84692
H         19.74103        37.66093         1.35856
O         15.05379        24.84546         2.39584
H         14.27443        24.95904         2.98239
O         16.88958        37.99247        -2.50424
H         16.61271        37.05839        -2.69519
O          9.67647        34.00338        -1.68740
H          9.32994        33.20408        -2.13750
O         22.56861        45.87084         2.41722
H         23.36281        45.62897         2.94554
O         30.42483        48.61803         3.46407
H         29.54200        49.07159         3.68605
O         15.64733        20.31331         2.33526
H         14.75346        20.64027         2.58482
O         30.02389        16.56405         2.70280
H         29.36943        17.08614         3.22043
O         35.13823        39.10276         2.95623
H         34.17713        39.12863         3.17860
O         19.19794        30.83565        -1.38064
H         19.14310        31.70596        -1.82984
O          9.57447        27.14765        -2.10266
H         10.49236        27.45983        -2.38316
O         15.50742        46.56487        -2.39740
H         15.00571        45.84392        -2.84684
O         15.27000        25.14704        -1.23572
H         15.95979        24.89252        -1.88602
O          9.39807        34.97454         1.82147
H          9.37816        35.84454         2.27107
O         22.85479         6.48115         2.66413
H         22.83586         5.59363         3.08339
O         20.05950        44.29776        -2.04045
H         19.41780        44.06752        -2.74523
O         25.60044        48.75149        -0.82245
H         26.48171        48.97177        -1.19108
O         21.65852         9.04045         1.79637
H         21.85162         8.35418         2.47607
O         24.23537        14.46866        -1.57399
O         33.53756        33.15469        -3.56648
H         32.67198        33.14939        -4.03694
O         17.65634        14.92424        -2.04352
H         18.14602        14.31274        -2.64632
O         29.64354        35.59385         0.44981
H         28.75492        35.56076         0.87167
O         17.01610        22.86425         2.09121
H         16.37427        22.25107         2.51919
O         17.68801        14.03258         1.50161
H         17.00109        13.63211         2.07476
O         21.88384        26.52347        -1.63332
H         21.69291        27.38942        -2.05582
O         27.88553        19.97133        -0.61966
H         28.76092        20.02952        -1.11245
O         12.42126        33.67711        -1.46724
H         11.58076        33.92432        -1.93136
O         19.91551        44.31419         1.59655
H         20.66999        44.34330         2.23152
O         36.95976        40.12623        -0.05109
H         36.20918        40.10207        -0.68143
O         22.44657         8.87219        -1.76651
H         22.27347         9.51937        -2.48878
O         20.46061        37.01048        -2.46878
H         20.24941        37.85937        -2.93795
O         19.31190        39.36118        -2.69967
H         18.41911        38.96399        -2.88804
O         28.57865        19.20278         2.93074
H         27.70775        19.43582         3.33573
O         32.42104        39.57931         2.21619
H         31.57066        40.04844         2.40548
O         29.80562        40.28877        -2.56598
H         30.65499        39.86949        -2.84200
O         28.85962        43.30686         2.31072
H         29.50445        42.62116         2.61349
H          4.91922        31.07156        -0.04017
H          4.89947        33.52265        -0.29567
H          7.58577        26.83808        -0.09002
H          6.24420        28.91935         0.13273
H          6.13047        35.70374        -0.36703
H          7.32574        37.88314        -0.20312
H         10.21120        22.74898        -1.16524
H          9.08399        24.81673        -1.26492
H          8.59892        40.08793         0.04403
H          9.84122        42.25366         0.07534
H         12.57731        18.38782        -0.72339
H         11.40386        20.55112        -1.14469
H         11.07539        44.39728         0.16890
H         12.38142        46.52754         0.30055
H         14.95234        14.08478         0.01379
H         13.70570        16.26092        -0.32971
H         13.55579        48.60624         0.38514
H         14.72088        50.79748         0.42027
H         17.41578         9.83933        -0.38819
H         16.28082        11.91923         0.00618
H         16.07782        53.08241         0.19992
H         17.36316        55.18677         0.15216
H         19.86769         5.60260         0.03923
H         18.63644         7.66874        -0.39683
H         18.68479        57.28009        -0.18417
H         20.01957        59.33695        -0.53383
H         23.09873         2.30915         1.20552
H         21.02992         3.52055         0.56742
H         23.57995        62.54820        -0.81458
H         21.37047        61.44380        -0.69510
H         25.26652         3.50127         1.36880
H         26.55459         5.58941         1.03569
H         26.86476        59.05440        -0.47473
H         25.69200        61.26570        -0.69396
H         27.81990         7.67808         0.84239
H         29.11374         9.76346         0.56862
H         28.94828        54.75732         0.37473
H         27.99157        56.85340        -0.01639
H         30.41341        11.87991         0.33030
H         31.61043        14.12145        -0.07209
H         31.48147        50.54800         1.36407
H         30.05353        52.51829         0.43663
H         32.73433        16.21957        -0.33072
H         33.64826        18.34204        -1.15418
H         33.93463        46.15752         1.90551
H         32.74825        48.32569         2.01222
H         35.37256        20.62292        -0.84331
H         36.64062        22.52157        -0.06882
H         35.88813        41.59710         2.66808
H         35.09144        43.98491         1.86715
H         37.73239        24.66063         0.68773
H         38.98399        26.98371         0.67241
H         38.81303        37.71599         0.83587
H         37.42972        39.48689         1.85017
H         40.29550        29.26537         0.20820
H         41.40014        31.13284        -0.58814
H         41.64389        33.50140        -0.41013
H         40.14541        35.95379        -0.26333
