         349
 CSIRO Nanostructure Databank - Neutral Graphene Oxide Data Set
C          1.20044         3.44806         0.45552
C          0.08736         4.19874         0.71804
C          1.11255         6.30203        -0.06000
C          0.02349         5.59422         0.44498
C          1.10229         7.72542        -0.25811
C         -0.00362         8.50398         0.10568
C          1.13956        10.60066        -0.46386
C         -0.02642         9.88460        -0.08852
C          1.15349        12.08098        -0.30759
C         -0.10685        12.86297        -0.44133
C          1.07404        14.85124        -1.42081
C         -0.14313        14.11741        -0.90976
C          1.04957        16.34656        -1.14379
C         -0.11737        17.11419        -0.99979
C          1.21290        18.97532        -0.01887
C         -0.05460        18.44370        -0.62701
C          1.26098        20.46723         0.21042
C          0.10422        21.15006         0.64553
C          1.35026        23.15152         1.27495
C          0.13971        22.48086         1.08557
C          1.44603        24.54781         1.66188
C          0.27315        25.34708         1.73327
C          1.57604        27.32977         2.24914
C          0.33432        26.70179         2.00774
C          1.65703        28.75678         2.47941
C          3.63966         3.23267        -0.22385
C          2.36567         4.02729        -0.22758
C          3.56857         6.34947        -0.59914
C          2.32316         5.54075        -0.44957
C          3.49368         7.68436        -1.22026
C          2.15156         8.42210        -1.11855
C          3.57900        10.58939        -0.94800
C          2.30982         9.90715        -0.79599
C          3.64453        12.02037        -0.89130
C          2.44567        12.80004        -0.53238
C          3.56844        14.85561        -1.55218
C          2.39415        14.31037        -0.75999
C          3.61258        16.35260        -1.57536
C          2.31799        17.09454        -1.28564
C          3.65457        19.10515        -0.72223
C          2.43411        18.44776        -0.73753
C          3.73629        20.47047        -0.17270
C          2.50422        21.11383         0.24152
C          3.90286        23.01395         1.23040
C          2.57393        22.38826         0.98466
C          4.00897        24.37788         1.92695
C          2.70244        25.16909         1.92266
C          4.04438        27.20991         2.53814
C          2.75274        26.54092         2.23664
C          4.10518        28.69287         2.64685
C          2.84397        29.40594         2.63888
C          6.15077         3.35446         0.27557
C          4.77348         3.75332         0.32067
C          6.03666         6.43116        -0.25738
C          4.72994         5.95801         0.03846
C          6.12697         7.64065        -1.17271
C          4.81384         8.42890        -1.32089
C          6.06736        10.60484        -0.75334
C          4.79536         9.87490        -1.10440
C          6.05834        11.99679        -1.31231
C          4.87031        12.68336        -1.25420
C          6.12620        14.85728        -1.67357
C          4.84268        14.10660        -1.67349
C          6.12749        16.28706        -1.49081
C          4.89285        17.03682        -1.34642
C          6.14191        19.15292        -1.17074
C          4.87213        18.40745        -1.10020
C          6.19546        20.57036        -0.62443
C          4.95755        21.12278        -0.04607
C          6.38744        22.99267         0.99494
C          5.04780        22.57715         0.33449
C          6.45396        24.48716         1.18407
C          5.14897        25.23750         1.33023
C          6.51591        27.33617         1.82408
C          5.30301        26.49989         2.15256
C          6.60515        28.55178         2.79102
C          5.30898        29.32709         2.73026
C          8.49140         3.63652         0.59895
C          7.23496         4.24626         0.31694
C          8.47429         6.35897        -0.25555
C          7.22136         5.69428        -0.01981
C          8.54143         7.73654        -0.60014
C          7.33586         8.47249        -0.83674
C          8.58301        10.55074        -1.13801
C          7.34347         9.84561        -0.98517
C          8.58674        11.94285        -1.46570
C          7.29869        12.61935        -1.90693
C          8.57409        14.81017        -1.78567
C          7.31585        14.13173        -1.72852
C          8.59883        16.25603        -1.66519
C          7.36271        16.97489        -1.42585
C          8.60982        19.08924        -1.10221
C          7.40191        18.39374        -1.23452
C          8.68453        20.46638        -0.74834
C          7.51574        21.17720        -0.32102
C          8.85158        23.11809         0.45116
C          7.60181        22.43720         0.28583
C          8.93432        24.39816         1.00695
C          7.70561        25.14258         1.33097
C          9.05801        27.15857         2.18877
C          7.77052        26.49713         1.73986
C          8.98592        28.67566         2.06765
C          7.81712        29.33601         2.38877
C         10.88548         3.71938         1.02004
C          9.71607         4.29820         0.51700
C         10.98919         6.42309         0.08085
C          9.77540         5.58867        -0.25589
C         11.02471         7.78103        -0.31535
C          9.78987         8.45408        -0.67998
C         11.07157        10.47121        -1.52056
C          9.80060         9.81934        -1.02123
C         11.06873        11.98884        -1.41751
C          9.80045        12.65300        -1.59395
C         11.02346        14.76177        -2.17460
C          9.77720        14.07184        -1.82723
C         11.01178        16.28322        -2.17666
C          9.79916        16.95391        -1.71460
C         10.99719        19.16759        -1.76871
C          9.91316        18.33199        -1.11356
C         11.09065        20.57690        -1.32077
C          9.96858        21.12381        -0.69128
C         11.39830        23.16539        -0.11136
C         10.08119        22.39928         0.03424
C         11.38464        24.61218         0.22422
C         10.25136        25.08645         1.06966
C         11.39459        27.38664         1.06108
C         10.31149        26.52705         1.56436
C         11.33731        28.80321         1.28170
C         10.14489        29.41153         1.74429
C         13.26834         3.84760         1.60156
C         12.11679         4.42712         1.04871
C         13.35078         6.55523         0.74270
C         12.13941         5.80614         0.60660
C         13.38877         7.92660         0.32523
C         12.23444         8.52053        -0.22537
C         13.34105        10.77618        -0.31836
C         12.40488         9.79810        -1.02264
C         13.45568        12.14386        -0.85970
C         12.26632        12.70781        -1.40912
C         13.50969        14.92555        -1.51351
C         12.37383        14.06446        -2.07014
C         13.46698        16.36448        -1.66986
C         12.30215        16.99533        -2.02406
C         13.52792        19.16089        -2.52131
C         12.22846        18.45057        -2.22921
C         13.43143        20.69974        -2.32631
C         12.30198        21.32394        -1.54134
C         13.65802        23.40662        -1.15825
C         12.42840        22.60172        -1.00763
C         13.68606        24.82519        -0.65679
C         12.46768        25.42044        -0.02910
C         13.62491        27.64818         0.10237
C         12.50162        26.82760         0.37446
C         13.64649        29.02367         0.49648
C         12.47131        29.59696         1.02505
C         15.60359         4.03017         2.40743
C         14.48444         4.56881         1.69961
C         15.78692         6.63614         1.18185
C         14.52030         5.90773         1.20823
C         15.76227         8.08290         0.93223
C         14.60961         8.69321         0.50260
C         15.77512        10.97462         0.38423
C         14.55121        10.16807         0.33409
C         15.80016        12.30437        -0.05255
C         14.63032        12.89779        -0.68804
C         15.99123        14.99338        -1.20778
C         14.65831        14.29098        -1.06887
C         15.94514        16.50366        -1.10404
C         14.61791        17.21599        -1.14616
C         16.00435        19.22328        -1.99179
C         14.70857        18.58297        -1.77942
C         16.05109        20.68997        -2.41625
C         14.73399        21.44678        -2.41423
C         16.01010        23.71413        -2.16495
C         14.74832        22.91852        -2.06717
C         16.00659        25.17031        -1.76031
C         14.72143        25.75203        -1.22135
C         16.04692        27.88487        -0.64849
C         14.74991        27.16896        -0.72553
C         16.03666        29.22712        -0.12665
C         14.82225        29.79884         0.32826
C         17.75490         4.34835         3.58635
C         16.75451         4.77347         2.67062
C         17.98806         6.99587         2.49192
C         16.97204         6.05304         1.96499
C         18.03237         8.31192         2.06982
C         17.02726         8.83356         1.11815
C         18.09279        11.16202         1.37627
C         17.01652        10.31460         0.82524
C         18.09390        12.55955         0.95894
C         17.00935        13.08503         0.09349
C         18.33405        15.13065        -0.31435
C         17.12182        14.38700        -0.40886
C         18.35945        16.51578        -0.61819
C         17.12663        17.20756        -1.00068
C         18.37323        19.33610        -1.22374
C         17.20517        18.62342        -1.36028
C         18.61834        20.70008        -1.86347
C         17.34369        21.47995        -2.26535
C         18.51659        23.72049        -1.67490
C         17.33764        22.98985        -2.22214
C         18.62295        25.22434        -1.91510
C         17.28503        25.95187        -1.66943
C         18.49126        27.97826        -0.80864
C         17.25875        27.28075        -0.99434
C         18.47190        29.34604        -0.38553
C         17.24018        29.95768        -0.07500
C         18.83888         5.16131         3.90795
C         20.07366         7.32472         3.77746
C         18.95810         6.47964         3.42181
C         20.12045         8.63124         3.41402
C         18.91670         9.29892         2.80951
C         20.40889        11.30122         2.09911
C         19.14882        10.61231         2.07792
C         20.59309        12.48383         1.43915
C         19.45014        13.27777         0.99154
C         20.76997        15.30271         0.32724
C         19.63073        14.39442        -0.02499
C         20.71138        16.63668         0.13317
C         19.52328        17.28860        -0.37133
C         20.55087        19.51820        -0.10594
C         19.51563        18.70691        -0.57757
C         20.51534        20.92031        -0.25469
C         19.57463        21.55704        -1.03900
C         20.80159        23.70987        -0.80826
C         19.61511        23.00505        -1.19891
C         20.85229        25.09743        -0.77773
C         19.76403        25.87857        -1.17428
C         20.93820        28.03588        -0.77033
C         19.74904        27.30441        -0.95646
C         20.90720        29.40221        -0.45210
C         19.70172        30.05159        -0.24436
O          2.84436        16.93351        -2.67582
O          4.60072         4.97186         1.02177
O         16.48614        25.96940        -2.89319
O         11.17938        18.87112        -3.17132
O         13.10044         9.27587        -2.13677
O         11.11507        22.34418         1.07387
O          3.92319        14.28172        -2.83425
O         16.20957        19.67744        -3.43367
O          6.06738        20.31116        -2.08302
O         10.87850        15.52215        -3.42316
O          3.46370        22.03463         2.20665
O         14.21932        26.80301        -2.07838
O         16.90372         5.94085         0.51897
O         18.46030        13.52444         2.01535
O         15.08203        23.63275        -3.29343
O          4.88609        26.49057         3.51841
O         17.57590         9.34339        -0.15625
O          4.08949         7.93096        -2.53740
O          2.07244         4.60061        -1.55535
O         13.40648        10.72601         1.13260
O         10.76957        25.41730         2.41839
O         14.27334        23.75817         0.16127
O          1.97537        12.48728         0.85811
O         13.84255        21.33078        -3.57220
O         17.58623        22.27250        -3.48054
O         20.00798        13.70455        -1.26368
H         20.23572        14.38446        -1.93229
O          9.96062         5.17228        -1.65632
H          9.97533         5.98384        -2.20858
O          6.36212        22.35705         2.31198
H          7.02458        22.80413         2.87945
O          2.50728        14.95319         0.53060
H          2.14361        14.31509         1.19296
O          6.04609        10.75952         0.73065
H          5.24378        11.28241         0.95124
O         13.75236        18.86247        -3.91703
H         14.51650        19.40685        -4.22735
O          6.31890        27.91090         0.49751
H          5.82147        27.24286        -0.03915
O         14.25800        17.42616         0.28279
H         15.04211        17.79916         0.73965
O          1.56488         8.40561        -2.45636
H          2.31824         8.45803        -3.09071
O          6.46394         7.08795        -2.48092
H          5.62097         7.03625        -2.99355
O         18.94162        25.39720        -3.32566
H         18.08062        25.40601        -3.80943
O         18.07692         9.70994         3.96510
H         18.05467         8.95774         4.59485
O         16.33444        14.75106        -2.62156
H         17.22172        15.13586        -2.78552
O          7.21459        12.36591        -3.34863
H          8.05585        12.66170        -3.75790
O          1.11274        14.65296        -2.84801
H          1.79709        15.25704        -3.22430
O          1.26872        18.39134         1.33925
H          2.01995        18.81152         1.81069
O          9.14423        26.90190         3.62946
H          9.65465        26.05925         3.72840
O          4.37695        24.10670         3.29033
H          3.97861        23.23722         3.52807
O          4.74104        25.73859         0.01704
H          4.77541        24.98206        -0.62465
O         10.33202        18.15591         0.27824
H          9.59197        17.74711         0.77394
O         19.33057        20.39808        -3.09216
H         19.10376        21.11331        -3.73246
O          6.78278        28.13249         4.16022
H          7.61901        27.60661         4.22014
O         12.79759        13.76310        -3.42964
H         12.45129        14.48615        -4.00327
O         11.01423        10.26802        -2.95569
H         11.88332         9.80764        -3.16955
O          4.91939        23.28243        -0.94099
H          5.40415        22.77212        -1.62665
H          1.25290         2.40249         0.79268
H         -0.78018         3.72815         1.20284
H         -0.90859         6.11749         0.69834
H         -0.87486         8.03781         0.58585
H         -0.93103        10.43724         0.19806
H         -1.04787        12.38282        -0.13252
H         -1.11758        14.62185        -0.99752
H         -1.09890        16.66092        -1.20815
H         -0.97147        19.04871        -0.61027
H         -0.86450        20.63276         0.62932
H         -0.81316        22.97176         1.32490
H         -0.70774        24.89337         1.53891
H         -0.58786        27.29995         2.02932
H          0.71576        29.32625         2.48915
H          3.65895         2.28825        -0.78614
H          2.86197        30.49714         2.77790
H          6.38530         2.27816         0.26226
H          5.34344        30.42524         2.80949
H          8.48347         2.59792         0.96653
H          7.79223        30.43719         2.35936
H         10.83408         2.72072         1.48105
H         10.10642        30.50941         1.80644
H         13.22368         2.81572         1.98015
H         12.44218        30.67216         1.25095
H         15.49184         3.04034         2.87537
H         14.81511        30.84979         0.65074
H         17.66394         3.35417         4.04710
H         17.22540        30.99937         0.27706
H         19.60486         4.78577         4.60199
H         20.91069         6.87268         4.33079
H         20.98087         9.24452         3.71602
H         21.28978        10.77844         2.49790
H         21.61152        12.85006         1.24648
H         21.70374        14.84332         0.68200
H         21.60071        17.23974         0.35833
H         21.38251        19.09049         0.46717
H         21.27471        21.49975         0.28746
H         21.69511        23.15169        -0.50403
H         21.74935        25.58140        -0.36515
H         21.91015        27.54358        -0.90921
H         21.85267        29.95154        -0.34346
H         19.68067        31.11145         0.04603
