         344
 CSIRO Nanostructure Databank - Neutral Graphene Oxide Data Set
C          1.48306         2.33053         1.93293
C          1.41605         3.69471         1.54832
C          2.59959         1.55839         1.69035
C          2.43358         4.29739         0.81451
C          1.21119         6.43798         0.53126
C          1.17030         7.79853         0.31277
C          2.41578         5.69595         0.43598
C          2.34901         8.53035        -0.00952
C          1.13416        10.71134        -0.08657
C          1.14499        12.09990        -0.10535
C          2.32158         9.95828        -0.17358
C          2.38003        12.82876        -0.01164
C          1.25538        14.95752         0.69850
C          1.29891        16.31955         1.03464
C          2.40091        14.26378         0.29464
C          2.49254        17.04328         0.93839
C          2.59264        18.41333         1.35893
C          3.73729         2.11671         1.02917
C          3.59770         3.47213         0.46487
C          4.94530         1.44227         0.92617
C          4.90842         4.21817         0.08590
C          3.61003         6.38947         0.04190
C          3.56178         7.79549        -0.15496
C          4.88006         5.68743        -0.00493
C          4.79315         8.52648        -0.52779
C          3.55706        10.71516        -0.61568
C          3.57327        12.14424        -0.15067
C          4.84963         9.99059        -0.36900
C          4.86861        12.79911         0.24952
C          3.64135        14.97044         0.15772
C          3.66875        16.39152         0.42501
C          4.85918        14.27555        -0.02889
C          4.86807        17.09480         0.31770
C          3.79994        19.05276         1.37604
C          4.99089        18.39749         0.89389
C          6.18236         2.11856         0.63171
C          6.16811         3.53506         0.35751
C          7.39819         1.45320         0.79320
C          7.38027         4.27164         0.27279
C          6.09570         6.35143        -0.15037
C          6.10359         7.77714        -0.51902
C          7.35264         5.66680        -0.04655
C          7.34482         8.55351        -0.36809
C          6.06725        10.66273        -0.33134
C          6.11828        12.10278        -0.21578
C          7.31606         9.92629        -0.35391
C          7.31654        12.82320        -0.32768
C          6.09371        14.95871        -0.18546
C          6.00928        16.46696        -0.44048
C          7.30935        14.27110        -0.25552
C          7.33095        17.11719        -0.18237
C          6.25874        18.95083         1.07056
C          7.43818        18.25318         0.63328
C          8.67579         2.21564         0.96436
C          8.63122         3.59037         0.34893
C          9.92450         1.44266         0.65425
C          9.80752         4.24835        -0.01520
C          8.58198         6.36289        -0.22845
C          8.60482         7.81691        -0.40019
C          9.78841         5.64484        -0.26357
C          9.75634         8.48300        -0.72064
C          8.63225        10.65471        -0.21595
C          8.57584        12.14071        -0.49690
C          9.70112         9.95020        -1.04686
C          9.78178        12.81362        -0.70938
C          8.63175        14.99323        -0.12373
C          8.53312        16.45890        -0.77053
C          9.84786        14.26576        -0.68509
C          9.83914        17.09371        -0.44025
C          8.72129        18.73406         0.99233
C          9.91194        18.12806         0.51281
C         11.06090         2.03996         0.17613
C         11.01593         3.42854        -0.41472
C         12.31045         1.35004         0.10064
C         12.32493         4.17035        -0.31755
C         11.08783         6.42132        -0.33759
C         10.97048         7.70881        -1.16433
C         12.28180         5.58654        -0.75680
C         12.25794         8.51380        -1.12708
C         11.03519        10.65349        -0.92595
C         11.01948        12.05339        -0.87662
C         12.24913         9.88680        -1.10127
C         12.23527        12.78301        -1.07265
C         11.02478        14.93813        -1.00189
C         11.05404        16.49758        -1.10062
C         12.22601        14.15536        -1.26845
C         12.34321        17.16479        -0.61379
C         11.16785        18.67158         0.94092
C         12.36649        18.22738         0.38574
C         13.51530         2.01740        -0.17504
C         13.51297         3.47163        -0.36566
C         14.73864         1.31828        -0.25213
C         14.77393         4.16638        -0.51036
C         13.55276         6.30121        -1.10181
C         13.57698         7.80322        -1.42502
C         14.81131         5.61401        -0.71323
C         14.76650         8.55650        -0.86240
C         13.52943        10.62357        -1.48263
C         13.54099        12.04153        -0.89997
C         14.79436         9.91292        -1.00957
C         14.80446        12.77479        -1.35795
C         13.51573        14.76600        -1.59504
C         13.50572        16.90003        -1.26142
C         14.73342        14.28062        -1.19408
C         14.85666        17.49930        -1.07489
C         13.59988        18.84492         0.70144
C         14.81811        18.52956         0.04310
C         15.96926         2.00102        -0.39608
C         15.96655         3.44997        -0.40762
C         17.19871         1.32717        -0.49341
C         17.21738         4.16082        -0.39933
C         15.94386         6.33365        -0.43670
C         15.88130         7.82444        -0.15474
C         17.17303         5.59705         0.06497
C         17.21404         8.50142        -0.31475
C         16.00018        10.69658        -0.73767
C         16.01475        12.07805        -0.79424
C         17.31814         9.95354        -0.69008
C         17.18619        12.88907        -0.52737
C         16.05038        15.06335        -1.34855
C         16.03954        16.52321        -0.84603
C         17.21702        14.26918        -0.73065
C         17.22829        17.16307        -0.55753
C         16.01460        19.11752         0.37487
C         17.23538        18.69137        -0.39133
C         18.42198         2.03930        -0.61004
C         18.39925         3.48962        -0.59016
C         19.65595         1.37610        -0.57658
C         19.66039         4.24412        -0.92604
C         18.46675         6.34176        -0.16017
C         18.43919         7.81137         0.22884
C         19.61213         5.69781        -0.48050
C         19.71222         8.57885        -0.06930
C         18.35356        10.65885         0.21149
C         18.37492        12.17970         0.02026
C         19.70205         9.97459         0.00950
C         19.69831        12.88863        -0.08686
C         18.46347        14.99717        -0.53110
C         18.48300        16.45316        -0.46133
C         19.66704        14.31189        -0.43655
C         19.67439        17.13491        -0.13302
C         18.49358        19.26643         0.17030
C         19.67861        18.56097         0.16109
C         20.89114         2.08731        -0.42284
C         20.91272         3.51327        -0.48441
C         22.09258         1.39058        -0.18850
C         22.12087         4.19969        -0.25793
C         20.88933         6.44022        -0.58867
C         20.92416         7.88150        -0.29465
C         22.17963         5.66718        -0.46775
C         22.16558         8.55194        -0.28556
C         20.93221        10.69067        -0.12110
C         20.95899        12.11585        -0.17087
C         22.16905         9.97354        -0.19692
C         22.18199        12.78342        -0.31331
C         20.94539        15.04415        -0.46290
C         20.93029        16.45698        -0.02899
C         22.22221        14.26412        -0.43247
C         22.09549        17.07419         0.44793
C         20.91512        19.21746         0.42603
C         22.12730        18.53592         0.59331
C         23.30343         2.07885         0.06270
C         23.29364         3.50862         0.08804
C         24.53183         1.37664         0.20640
C         24.50166         4.24321         0.61495
C         23.41148         6.40669        -0.13994
C         23.42010         7.81980        -0.23736
C         24.58058         5.70097         0.21293
C         24.65689         8.52128        -0.11298
C         23.41491        10.67710        -0.20725
C         23.40690        12.08237        -0.27682
C         24.66761         9.95823        -0.15207
C         24.69858        12.85114        -0.42362
C         23.40570        14.92285         0.15570
C         23.27426        16.24482         0.67320
C         24.61063        14.20919         0.22167
C         24.35175        16.66140         1.46964
C         23.31881        19.33578         0.68661
C         24.53650        18.87100         1.22924
C         25.77162         2.06901         0.26315
C         25.79033         3.49290         0.38540
C         27.00580         1.37194         0.22219
C         27.00747         4.18355         0.42818
C         25.79579         6.38803         0.33946
C         25.86013         7.78708         0.13484
C         27.00531         5.63757         0.84707
C         27.12153         8.47615         0.30022
C         25.88483        10.67355        -0.01731
C         25.91396        12.07726         0.03994
C         27.18437         9.91721        -0.13130
C         27.11948        12.78913         0.32218
C         25.77305        14.78585         0.79147
C         25.55063        15.95945         1.52712
C         27.09353        14.19603         0.62275
C         27.32350        17.20237         1.27612
C         25.82374        19.28444         0.86452
C         27.08697        18.56846         0.87505
C         28.22375         2.06780         0.21443
C         28.22116         3.48862         0.28674
C         29.49007         1.36615         0.21316
C         29.49289         4.23768         0.00240
C         28.31254         6.35840         0.62117
C         28.28775         7.79913         0.60445
C         29.50391         5.67672         0.46175
C         29.56525         8.52353         0.94838
C         28.39331        10.66813         0.36458
C         28.36394        12.09090         0.40574
C         29.58827         9.98569         0.56833
C         29.58327        12.82628         0.49800
C         28.29634        14.94520         0.67391
C         28.34444        16.40761         0.72366
C         29.54596        14.25717         0.45624
C         29.47151        17.09310         0.16753
C         28.16394        19.18326         0.20541
C         29.38270        18.50453        -0.05216
C         30.68231         2.03789         0.32594
C         30.74087         3.46440         0.33836
C         31.93661         4.16844         0.44355
C         30.78684         6.35393         0.46361
C         30.83106         7.78020         0.58941
C         31.96286         5.57393         0.43202
C         32.01543         8.52509         0.57228
C         30.83301        10.68676         0.61114
C         30.83004        12.13053         0.49808
C         32.02412         9.92532         0.64306
C         32.01717        12.88883         0.37568
C         30.75007        14.97243         0.20751
C         30.69207        16.40115        -0.07917
C         31.97131        14.26201         0.18779
C         31.78751        17.12207        -0.57860
C         30.50909        19.18550        -0.58793
C         31.68500        18.49821        -0.84229
O          5.40044         8.04820        -1.79092
O         12.74448         5.64147        -2.17485
O         13.45878        15.97625        -2.30846
O         21.65600         6.07016        -1.79736
O         15.12643        18.05455        -2.36801
O         18.96663        12.75793         1.23219
O         24.34874        17.85481         2.19223
O          4.04478         3.57067        -0.91348
O         26.56295        16.57661         2.28199
O         21.74379        14.80599        -1.70550
O         17.88081        10.03957        -2.04347
H         17.18860         9.75410        -2.67747
O          4.91587        12.65516         1.73882
H          4.15579        13.16665         2.09357
O         10.71546         7.37873        -2.56068
H         11.40340         6.72323        -2.83499
O          8.34926        16.23741        -2.18239
H          9.22149        16.38794        -2.63540
O         18.33224         7.80799         1.70882
H         18.10834         8.74785         1.96174
O          8.87147        15.22954         1.28640
H          8.84883        14.36525         1.74802
O         19.70420         4.27274        -2.38946
H         20.48321         4.83561        -2.62591
O         17.23598        19.30442        -1.70640
H         16.42218        18.93142        -2.19827
O         11.38187         6.86206         1.01953
H         11.30820         6.09144         1.62080
O          5.67565        16.59908        -1.85856
H          6.49899        16.39037        -2.36429
O         10.82663         3.20219        -1.85885
H         11.20782         3.96812        -2.34066
O         27.40231         9.83702        -1.59713
H         27.45287        10.75746        -1.93420
O         29.57111         8.54628         2.42942
H         30.41868         8.95384         2.70911
O          3.45941        10.77139        -2.09603
H          3.66625         9.87364        -2.43744
O          8.75652         2.47336         2.43976
H          7.90159         2.87324         2.70919
O         14.96139        12.64607        -2.79850
H         15.58584        13.35274        -3.09263
O         13.67035        11.91164         0.54369
H         12.94193        11.34108         0.86964
O         13.48784        10.67204        -2.91902
H         13.57465         9.74192        -3.23993
O         24.32846         4.28528         2.09534
H         24.28525         3.35418         2.40412
O         17.01046         5.49995         1.53484
H         17.65647         6.13261         1.94065
O         26.84611         5.60183         2.30728
H         25.95219         5.21436         2.48700
O         15.52270         7.90199         1.28213
H         15.99910         7.16240         1.73255
O         29.52480         4.35000        -1.48073
H         29.57496         3.43643        -1.83571
O         24.90185        13.07247        -1.86185
H         24.71350        12.22845        -2.32369
O          9.05130        10.53566         1.18031
H          8.32255        10.87713         1.74018
O         16.32609        15.16966        -2.78057
H         15.86797        15.98611        -3.09538
O         17.92422        10.44385         1.58273
H         18.32506        11.17251         2.11403
O          9.32912        10.04138        -2.44841
H          9.80853         9.32913        -2.92908
O         13.78231         7.89269        -2.88154
H         13.32406         7.12335        -3.29081
O         10.92182        16.77746        -2.53284
H         11.77415        16.50083        -2.95273
H          0.63164         1.89722         2.47610
H          0.53041         4.27208         1.84648
H          2.64545         0.51834         2.04351
H          0.27622         5.91800         0.78008
H          0.20688         8.31747         0.39786
H          0.16502        10.20417         0.02305
H          0.18887        12.63870        -0.06799
H          0.29970        14.42517         0.80075
H          0.38822        16.81807         1.39656
H          1.68743        18.92181         1.72209
H          5.00450         0.40131         1.27868
H          3.88376        20.07907         1.76203
H          7.39457         0.38198         1.04598
H          6.37494        19.91290         1.58980
H          9.96747         0.39802         1.00160
H          8.80050        19.60818         1.65481
H         12.34127         0.28025         0.35925
H         11.16795        19.50016         1.66288
H         14.73568         0.22007        -0.18572
H         13.60636        19.63941         1.46417
H         17.21911         0.22751        -0.46064
H         16.08186        19.87116         1.17538
H         19.67563         0.27638        -0.54061
H         18.50518        20.34711         0.38045
H         22.09095         0.29063        -0.19729
H         20.90354        20.31338         0.52696
H         24.53125         0.27856         0.14994
H         23.27356        20.34788         0.25355
H         27.00389         0.27282         0.17755
H         25.84502        20.18326         0.22475
H         29.47744         0.26683         0.18809
H         28.06763        20.23261        -0.11096
H         31.62337         1.47321         0.41016
H         32.88332         3.61686         0.54741
H         32.94248         6.06855         0.48478
H         32.98369         8.01584         0.46267
H         32.99722        10.43490         0.63600
H         32.99478        12.38791         0.37648
H         32.91446        14.80474         0.03705
H         32.74069        16.61465        -0.78008
H         30.44129        20.26495        -0.78451
H         32.55480        19.03338        -1.24831
