         421
 CSIRO Nanostructure Databank - Neutral Graphene Oxide Data Set
C          1.28614         1.99536         0.35975
C          1.26011         3.41601         0.56228
C          2.44426         1.29362         0.41874
C          2.42661         4.16171         0.64836
C          1.27826         6.35869         0.97629
C          1.26346         7.77485         0.90625
C          2.39556         5.61617         0.65330
C          2.40952         8.52356         0.61473
C          1.25368        10.74382         0.75558
C          1.27612        12.15422         0.77610
C          2.41775         9.97801         0.55936
C          2.41537        12.88694         0.46666
C          1.28037        15.09096         0.70753
C          1.31869        16.47435         0.77774
C          2.45440        14.33550         0.47988
C          2.53064        17.17724         0.61575
C          2.57504        18.59482         0.79716
C          3.71254         1.97181         0.84929
C          3.70709         3.46451         0.60790
C          4.96118         1.30352         0.36483
C          4.90576         4.14289         0.51168
C          3.62400         6.32010         0.12706
C          3.64537         7.82167         0.38787
C          4.89738         5.64736         0.67999
C          4.83617         8.52706         0.32172
C          3.65278        10.67017         0.33287
C          3.60741        12.12942        -0.06579
C          4.86648         9.96990         0.30456
C          4.90926        12.85339         0.13757
C          3.69366        15.02949         0.28115
C          3.73786        16.46543         0.32469
C          4.91495        14.27889         0.16847
C          4.95832        17.19145         0.11374
C          3.76508        19.26433         0.75015
C          5.00136        18.61557         0.39871
C          6.15973         1.99842         0.25696
C          6.17266         3.45310         0.38021
C          7.38503         1.31221         0.01950
C          7.39629         4.13722         0.30177
C          6.14588         6.31217         0.14418
C          6.11143         7.79845         0.10727
C          7.43996         5.59215         0.28949
C          7.37917         8.52704         0.37291
C          6.12816        10.69074         0.21552
C          6.10460        12.11684         0.18463
C          7.37548         9.99279         0.19975
C          7.37322        12.85614         0.27253
C          6.14275        14.99538         0.03670
C          6.14133        16.41284        -0.14314
C          7.38237        14.29672        -0.05410
C          7.37140        16.99770        -0.52362
C          6.16949        19.40416         0.55402
C          7.43237        19.05988         0.00680
C          8.61802         1.98964        -0.03336
C          8.64040         3.42879         0.12426
C          9.83935         1.29555        -0.19068
C          9.86320         4.11535         0.05636
C          8.62105         6.27689         0.22382
C          8.66249         7.75664         0.32741
C          9.93505         5.57462         0.42284
C          9.89656         8.46760        -0.06447
C          8.61958        10.62339         0.09191
C          8.67594        12.08634         0.17355
C          9.84779         9.90333        -0.13703
C          9.87374        12.77701        -0.29469
C          8.59555        14.95906        -0.24809
C          8.63010        16.37814        -0.37656
C          9.82399        14.21993        -0.69415
C          9.86966        17.12109        -0.27668
C          8.72951        19.33111         0.42030
C          9.88950        18.54883         0.02843
C         11.06944         1.98414        -0.27388
C         11.07271         3.42743        -0.21449
C         12.30161         1.30075        -0.36736
C         12.28152         4.14835        -0.44637
C         11.10065         6.30384        -0.21543
C         11.06569         7.74157        -0.35113
C         12.23782         5.59061        -0.55453
C         12.25923         8.43971        -0.78193
C         11.00837        10.61937        -0.49163
C         11.02363        12.05318        -0.56881
C         12.16842         9.88735        -1.00318
C         12.27795        12.77331        -0.72320
C         11.11553        14.93952        -0.40248
C         11.10132        16.39159        -0.22476
C         12.27947        14.20788        -0.43809
C         12.34431        17.05184        -0.05584
C         11.12936        19.18607         0.15158
C         12.37379        18.49546         0.05650
C         13.52439         2.00336        -0.44662
C         13.51236         3.44449        -0.56962
C         14.76201         1.32484        -0.42909
C         14.74632         4.13263        -0.73655
C         13.42685         6.30352        -1.06507
C         13.45779         7.77779        -1.02044
C         14.74137         5.55815        -1.11293
C         14.70586         8.48191        -1.25815
C         13.45928        10.65911        -1.32356
C         13.47187        12.10223        -0.96256
C         14.70658         9.87170        -1.36639
C         14.72781        12.81237        -0.88315
C         13.57114        14.82865         0.01801
C         13.58963        16.33291        -0.09683
C         14.80014        14.14170        -0.51420
C         14.80733        16.99749        -0.07921
C         13.58334        19.17228         0.16664
C         14.86769        18.43380         0.37214
C         15.98546         2.02534        -0.48384
C         15.97525         3.46090        -0.64584
C         17.22217         1.35044        -0.41600
C         17.21572         4.18807        -0.72545
C         15.99594         6.33416        -1.04572
C         15.97756         7.73597        -1.20899
C         17.21687         5.62277        -0.88682
C         17.22950         8.42146        -1.27649
C         15.95367        10.62845        -1.59472
C         15.96059        12.10943        -1.32273
C         17.26358         9.85770        -1.74914
C         17.24404        12.72427        -0.80803
C         16.04475        14.89203        -0.57472
C         16.04473        16.30093        -0.36062
C         17.25778        14.22937        -0.86884
C         17.25193        17.03197        -0.53000
C         16.08510        19.16325        -0.10289
C         17.24009        18.49480        -0.42651
C         18.44361         2.05475        -0.46384
C         18.43800         3.49497        -0.61147
C         19.66902         1.36738        -0.36177
C         19.68317         4.20777        -0.62111
C         18.45484         6.32759        -0.93902
C         18.44273         7.73091        -1.17519
C         19.69714         5.61943        -0.78926
C         19.75615         8.44319        -1.47032
C         18.48640        10.64428        -1.31242
C         18.48491        12.00197        -1.26097
C         19.71548         9.86923        -0.91523
C         19.73119        12.77209        -1.47880
C         18.45705        14.95645        -0.98307
C         18.44774        16.35913        -0.85557
C         19.72548        14.26601        -1.35556
C         19.69703        17.12143        -1.24953
C         18.48555        19.20204        -0.55732
C         19.69255        18.55142        -0.76464
C         20.90298         2.05807        -0.34026
C         20.90824         3.49545        -0.44916
C         22.12019         1.36289        -0.19911
C         22.13841         4.20061        -0.35733
C         20.94564         6.33224        -0.74154
C         20.98572         7.73965        -0.92819
C         22.15287         5.62904        -0.46465
C         22.17762         8.46040        -0.73354
C         21.02447        10.59520        -1.12129
C         21.02741        12.02076        -1.45503
C         22.20960         9.91599        -0.89608
C         22.30994        12.80622        -1.20718
C         21.00847        14.96887        -1.08115
C         20.97626        16.37531        -0.91979
C         22.21896        14.26105        -0.95002
C         22.16209        17.07920        -0.65692
C         20.92339        19.22168        -0.58476
C         22.14959        18.53124        -0.53470
C         23.35292         2.05100        -0.10751
C         23.35724         3.48987        -0.16141
C         24.57142         1.35570         0.04538
C         24.58070         4.20055        -0.01067
C         23.37870         6.34449        -0.31539
C         23.38937         7.77027        -0.41751
C         24.58757         5.63266        -0.05653
C         24.61499         8.48887        -0.23807
C         23.45497        10.63901        -0.69951
C         23.48504        12.05847        -0.72771
C         24.63828         9.92384        -0.34118
C         24.64887        12.78513        -0.38099
C         23.41318        14.95021        -0.60052
C         23.38745        16.37024        -0.48213
C         24.63475        14.22824        -0.36951
C         24.60402        17.08046        -0.23491
C         23.35526        19.21268        -0.27468
C         24.58162        18.53344        -0.12247
C         25.79632         2.04708         0.19189
C         25.79422         3.48495         0.18839
C         27.02170         1.35437         0.33804
C         27.01394         4.19278         0.41054
C         25.80858         6.34563         0.14169
C         25.81383         7.78191         0.05552
C         27.00859         5.63561         0.40179
C         27.03754         8.49501         0.24088
C         25.84656        10.63688        -0.08691
C         25.85941        12.07741        -0.08628
C         27.05030         9.92165         0.17702
C         27.04595        12.78791         0.21137
C         25.81857        14.94952        -0.08858
C         25.79819        16.36989        -0.07021
C         27.04866        14.23615         0.24298
C         27.11311        17.10000         0.02905
C         25.76280        19.23389         0.19327
C         27.00383        18.57576         0.35437
C         28.23377         2.04913         0.53741
C         28.20978         3.47662         0.61611
C         29.48157         1.36067         0.62068
C         29.44025         4.19306         1.09257
C         28.24394         6.34880         0.56472
C         28.24786         7.78055         0.49272
C         29.45749         5.65553         0.74824
C         29.46744         8.48487         0.67466
C         28.28132        10.62786         0.36958
C         28.27940        12.07858         0.43751
C         29.46053         9.90809         0.61726
C         29.43403        12.78036         0.79142
C         28.16865        14.93006         0.67460
C         28.07843        16.40448         0.98822
C         29.30459        14.18164         1.32383
C         29.41028        17.12412         0.90594
C         28.17307        19.23918         0.69083
C         29.42955        18.51641         0.76306
C         30.70957         2.06147         0.65543
C         30.71934         3.47869         0.76267
C         31.96672         1.37717         0.58962
C         31.92818         4.19464         0.68894
C         30.69317         6.35078         0.76990
C         30.70663         7.77234         0.78085
C         31.93536         5.63204         0.75367
C         31.95950         8.45221         0.91190
C         30.74637        10.61059         0.67109
C         30.73431        12.12212         0.77261
C         31.95089         9.91785         1.26993
C         31.98912        12.78379         1.19807
C         30.64143        14.95861         1.33525
C         30.63427        16.31406         0.63216
C         31.96103        14.24310         1.41930
C         31.93463        17.07964         0.73007
C         30.66621        19.20187         0.62011
C         31.90484        18.51340         0.58751
C         33.16206         2.06592         0.53238
C         33.16503         3.49966         0.50920
C         34.46224         1.30883         0.66628
C         34.37043         4.23467         0.32954
C         33.16142         6.33323         0.73354
C         33.15811         7.76087         0.86691
C         34.39285         5.62404         0.51209
C         34.45414         8.49068         1.14137
C         33.22709        10.65680         0.93357
C         33.19141        12.10675         0.98500
C         34.41417         9.96961         0.81326
C         34.43608        12.82939         0.78732
C         33.28604        15.00803         1.33127
C         33.15294        16.41239         0.77970
C         34.43746        14.22915         0.75099
C         34.37559        17.11233         0.55052
C         33.12315        19.21742         0.45747
C         34.35600        18.53710         0.39272
C         35.67225         2.06104         0.15151
C         35.55423         3.51579        -0.27242
C         36.83733         1.41843        -0.03988
C         36.85886         4.25707        -0.07737
C         35.63770         6.37822         0.41037
C         35.66507         7.77240         0.59421
C         36.85553         5.67134         0.15619
C         36.86943         8.50405         0.37996
C         35.65572        10.67224         0.56831
C         35.64482        12.10412         0.52429
C         36.86423         9.96629         0.37806
C         36.84973        12.82053         0.28375
C         35.62244        14.95551         0.46013
C         35.60554        16.39241         0.42427
C         36.83719        14.25020         0.22727
C         36.82077        17.09763         0.20779
C         35.58450        19.23004         0.20515
C         36.80326        18.54893         0.12587
C         38.00792         2.12519        -0.67860
C         38.05047         3.58067        -0.26894
C         39.31859         1.41203        -0.47922
C         39.30740         4.26294        -0.16157
C         38.08059         6.38693         0.11485
C         38.06404         7.80231         0.14933
C         39.33261         5.67267         0.00464
C         39.34113         8.49808        -0.23812
C         38.08293        10.68583         0.15232
C         38.08044        12.11083         0.11970
C         39.32139         9.99408        -0.03427
C         39.29927        12.83092        -0.10775
C         38.04565        14.97743         0.00601
C         38.02968        16.38638         0.03286
C         39.28977        14.25654        -0.20210
C         39.35318        17.11634         0.04259
C         38.01751        19.25520        -0.10927
C         39.24721        18.60066        -0.24577
C         40.47877         2.07540        -0.30667
C         40.52799         3.52699        -0.19764
C         41.73861         4.21025        -0.07025
C         40.57976         6.34875         0.11604
C         40.56662         7.84268         0.40853
C         41.75956         5.60529         0.08899
C         41.80793         8.58798        -0.03131
C         40.52170        10.67877        -0.19796
C         40.52934        12.12055        -0.25891
C         41.75846         9.90580        -0.30756
C         41.70880        12.85523        -0.51048
C         40.47674        14.95373        -0.52516
C         40.37618        16.43345        -0.86671
C         41.67256        14.23462        -0.67483
C         41.67321        17.21000        -0.86494
C         40.43353        19.28368        -0.53172
C         41.65114        18.56895        -0.74538
O          7.33725        18.24217        -1.14323
O         15.87120        11.63548        -2.69388
O         21.90756        12.38839        -2.55891
O         19.61607        13.62985        -2.68084
O         30.99708        11.39390        -0.51870
O          6.08295         7.01021        -1.15563
O         13.95410         5.78571        -2.34011
O          8.16708        12.58965         1.48666
O         31.26168        14.79353         2.63805
O         12.51025        10.30882        -2.37742
O         30.49721        15.93164        -0.79478
H         29.67683        16.35251        -1.15343
O          4.89805         5.90641         2.11325
H          5.72792         5.54817         2.49262
O         31.79451         9.98180         2.72006
H         32.59562         9.56339         3.10974
O         19.92232         8.47710        -2.90420
H         19.10143         8.87531        -3.29183
O         28.88069        14.06344         2.73394
H         29.71428        14.02219         3.26513
O          3.74803         1.82434         2.33278
H          4.54264         2.30654         2.64789
O         17.22484        12.41853         0.64448
H         16.54867        12.99784         1.06145
O          3.41206        12.10318        -1.54063
H          2.56655        11.63343        -1.70705
O         39.49656         8.28286        -1.67607
H         38.73228         8.69869        -2.12699
O         27.56296        16.51233         2.34200
H         27.93266        15.74748         2.84899
O         35.29971         3.49449        -1.71411
H         36.05363         2.99672        -2.12175
O         39.86946        16.99402         1.40036
H         39.23347        17.43037         2.00479
O          8.05968         8.16072         1.63549
O         27.75646        16.99337        -1.28580
H         27.16235        17.40566        -1.94821
O          9.68713        14.19617        -2.16943
H         10.50256        13.78866        -2.53436
O         19.65801        17.20779        -2.71318
H         19.67554        16.29155        -3.06622
O         10.18048         5.61426         1.87856
H          9.94343         6.51463         2.19113
O         17.48574         9.72445        -3.19677
H         17.15201        10.55832        -3.60887
O         29.34986         4.15629         2.58262
H         28.50163         4.58487         2.82774
O         34.65321         0.99031         2.06255
H         34.59278         1.82185         2.57608
O         39.84600        16.49558        -2.22373
H         40.50153        16.08425        -2.82438
O         34.59279         8.46230         2.61668
H         34.78967         7.53596         2.87379
O         40.43454         7.99256         1.84689
H         41.22490         7.59698         2.26897
O         13.61401        14.57448         1.48508
H         12.76097        14.88795         1.85624
O         19.54093         9.70304         0.53412
H         19.26621        10.56534         0.91403
O         15.02274        18.35678         1.86471
H         14.32482        17.74811         2.19072
O         37.73604         2.11075        -2.13293
H         38.48820         2.56250        -2.57218
O          3.57615         6.12579        -1.30843
H          4.40029         6.52545        -1.68336
O         33.73791        15.22068         2.70985
H         32.93254        15.41837         3.24232
H          0.34082         1.48789         0.11759
H          0.28618         3.92446         0.53340
H          2.45903         0.20749         0.24659
H          0.36028         5.85280         1.31073
H          0.31730         8.28533         1.13375
H          0.29932        10.24414         0.96966
H          0.34874        12.66801         1.06661
H          0.31640        14.58273         0.84267
H          0.39669        17.03856         0.97974
H          1.64257        19.12966         1.02868
H          4.96686         0.20573         0.28282
H          3.79161        20.34508         0.95281
H          7.36607         0.21760        -0.08898
H          6.08201        20.32423         1.15277
H          9.83112         0.19687        -0.24634
H          8.90272        20.14469         1.14120
H         12.31271         0.20086        -0.34662
H         11.15174        20.26472         0.36824
H         14.77395         0.22805        -0.34539
H         13.58213        20.26545         0.29500
H         17.23564         0.25594        -0.30693
H         16.09287        20.26153        -0.03032
H         19.66464         0.27147        -0.26609
H         18.49243        20.27796        -0.32129
H         22.10998         0.26473        -0.13701
H         20.91301        20.30127        -0.36816
H         24.56643         0.25590         0.06482
H         23.33651        20.30794        -0.16999
H         27.02691         0.25500         0.29896
H         25.71109        20.32237         0.34920
H         29.48941         0.26265         0.55515
H         28.17509        20.33235         0.81693
H         31.97259         0.27686         0.60651
H         30.66126        20.29545         0.50245
H         34.38601         0.32685         0.13282
H         33.10488        20.31417         0.37573
H         36.93344         0.34786         0.19940
H         35.57065        20.32575         0.10765
H         39.31502         0.31441        -0.55939
H         37.97229        20.34704        -0.24562
H         41.42751         1.52320        -0.22355
H         42.68470         3.65023        -0.08291
H         42.73285         6.10378         0.20099
H         42.77702         8.06770        -0.05985
H         42.68740        10.42623        -0.58055
H         42.67216        12.34017        -0.61873
H         42.60761        14.75821        -0.91729
H         42.62091        16.70604        -1.10502
H         40.42880        20.38063        -0.61298
H         42.58435        19.14201        -0.85351
