         210
 CSIRO Nanostructure Databank - Neutral Graphene Oxide Data Set
C         30.42892        31.65523        -0.96889
C         30.51947        32.87833        -0.71281
C         30.62941        35.89527         0.20447
C         30.59885        37.12101         0.45290
C         30.83944        39.87318         1.90847
C         30.88119        40.96230         2.48013
C         32.85150        28.90155        -1.52343
C         31.70415        29.44564        -1.39639
C         32.74573        31.62388        -1.71693
C         31.48713        30.81227        -1.36818
C         32.78804        33.12124        -1.42764
C         31.58902        33.80287        -0.81505
C         32.75779        36.05563        -0.89403
C         31.62480        35.11702        -0.43214
C         32.90258        37.35024        -0.06101
C         31.77794        37.95263         0.48308
C         33.05554        40.08853         1.00190
C         31.69621        39.41829         0.75578
C         33.13427        41.34038         1.60846
C         31.81637        42.08039         2.12394
C         33.36117        43.60756         3.03856
C         32.25714        43.03977         3.22689
C         35.51660        27.37671        -1.18694
C         35.35989        28.77528        -1.34059
C         34.13452        29.42750        -1.55608
C         35.38061        31.66797        -1.52523
C         34.08652        30.90539        -1.79964
C         35.30555        33.12602        -1.21230
C         34.10040        33.80334        -1.21286
C         35.36436        36.01381        -0.88053
C         34.06948        35.29249        -1.12611
C         35.37068        37.39699        -0.33754
C         34.17400        38.05943         0.00486
C         35.48949        40.06861         0.61335
C         34.22867        39.39673         0.54441
C         35.57213        41.38308         1.14753
C         34.41326        42.00016         1.71705
C         35.86379        43.97741         2.47501
C         34.56022        43.25266         2.38777
C         35.83492        45.47803         2.25490
C         37.83818        27.34918        -0.66479
C         36.57240        26.76594        -0.91800
C         37.81671        28.77663        -0.78443
C         36.60448        29.48930        -1.11745
C         37.80514        31.62454        -0.88711
C         36.60561        30.91237        -1.14209
C         37.79887        33.06612        -0.89171
C         36.57154        33.81110        -0.96852
C         37.82689        35.91056        -0.66027
C         36.59591        35.20651        -0.77230
C         37.85237        37.33833        -0.48523
C         36.63640        38.04916        -0.21931
C         37.92687        40.13074         0.13725
C         36.68494        39.41440         0.17574
C         37.96887        41.51202         0.44978
C         36.80306        42.13242         1.03478
C         37.94900        44.29901         0.87821
C         36.87053        43.46199         1.44745
C         37.91996        45.82406         1.01079
C         36.79793        46.16190         1.88615
C         40.15285        24.59689         0.24943
C         39.14854        25.26903        -0.09184
C         40.24973        27.34834        -0.07127
C         39.01350        26.65486        -0.30295
C         40.24738        28.78787        -0.20645
C         39.04191        29.48598        -0.54061
C         40.25058        31.63558        -0.44701
C         39.03153        30.91759        -0.62318
C         40.28319        33.05088        -0.65027
C         39.03800        33.76877        -0.82318
C         40.26863        35.92907        -1.04506
C         39.03260        35.18620        -0.80795
C         40.31429        37.36869        -0.79301
C         39.09924        38.04385        -0.49284
C         40.35354        40.16494        -0.33898
C         39.12484        39.44908        -0.23570
C         40.38007        41.57793        -0.09527
C         39.19696        42.24640         0.31590
C         40.40826        44.42430         0.34855
C         39.22439        43.65700         0.53259
C         40.40690        45.87485         0.52789
C         39.20301        46.52907         0.93071
C         40.42015        48.61398         0.92790
C         39.40317        47.89865         1.13597
C         42.65936        24.67273         0.94395
C         41.40454        25.20217         0.50735
C         42.68984        27.39136         0.47676
C         41.42923        26.62213         0.29699
C         42.63357        28.87979         0.52738
C         41.44655        29.53106         0.06322
C         42.66286        31.67838         0.14549
C         41.45209        30.94948        -0.07898
C         42.70468        33.08118        -0.12064
C         41.52022        33.73391        -0.56901
C         42.83441        35.89336        -0.74497
C         41.59733        35.14075        -0.96112
C         42.82365        37.33347        -0.93211
C         41.55201        38.06252        -0.86492
C         42.76413        40.25253        -0.90541
C         41.54130        39.47020        -0.69898
C         42.79921        41.65729        -0.49952
C         41.61289        42.32068        -0.17417
C         42.84637        44.49032        -0.17014
C         41.62200        43.75129         0.03866
C         42.81502        45.92808        -0.11364
C         41.61626        46.62566         0.29204
C         42.86959        48.68113         0.10231
C         41.63210        48.07841         0.45329
C         43.66068        25.29988         1.33143
C         44.94803        27.50260         1.72557
C         43.95480        26.69642         1.01716
C         44.81067        29.03348         1.82442
C         43.76101        29.62173         0.90699
C         45.04426        31.77261         0.85513
C         43.82596        31.02805         0.65059
C         45.11939        33.14142         0.47979
C         43.94028        33.79627        -0.00164
C         45.29091        35.82190        -0.54757
C         43.97933        35.18494        -0.37633
C         45.31126        37.31806        -0.88033
C         44.02965        38.03171        -0.91327
C         45.35974        40.21339        -0.80983
C         44.08281        39.49028        -1.03383
C         45.34788        41.61662        -0.69995
C         44.11047        42.32072        -0.19350
C         45.27726        44.49978        -0.68492
C         44.06616        43.80998        -0.41749
C         45.22113        45.93776        -0.73793
C         44.03094        46.62676        -0.42125
C         43.85972        48.02753        -0.29335
C         47.04266        27.81820         2.77156
C         46.03696        27.08452         2.42428
C         47.33006        29.09228         2.33816
C         46.15378        29.77115         1.80896
C         47.43858        31.89668         1.66769
C         46.20315        31.10220         1.41794
C         47.51477        33.27634         1.13747
C         46.38834        33.88323         0.59979
C         47.67201        35.96795         0.02775
C         46.48442        35.23529         0.06784
C         47.73350        37.33335        -0.44005
C         46.57318        38.05110        -0.69859
C         47.81339        40.20835        -0.80714
C         46.58096        39.49647        -0.80704
C         47.79805        41.63162        -0.89918
C         46.55814        42.34170        -0.80629
C         47.74739        44.46478        -1.15453
C         46.52823        43.78531        -0.86903
C         47.56041        45.87303        -1.23865
C         46.49236        46.49070        -1.04039
C         49.59489        29.14966         1.16910
C         48.70162        29.67239         2.33906
C         50.07973        31.87261         2.03860
C         48.69803        31.20575         2.11879
C         50.06083        33.29324         1.48777
C         48.78570        34.02611         1.30655
C         50.19833        36.01753         0.37752
C         48.87438        35.42481         0.69262
C         50.27404        37.33911        -0.13448
C         49.06179        37.98063        -0.77212
C         50.25925        40.19822        -0.80493
C         49.06321        39.50289        -0.71591
C         50.26654        41.60766        -1.14352
C         49.03112        42.33224        -1.09710
C         50.24980        44.25318        -1.62072
C         48.97724        43.75802        -1.30007
C         50.72167        29.72491         1.07150
C         52.32354        31.78729         1.16845
C         51.18047        31.01291         1.32370
C         52.42017        33.04613         1.35211
C         51.27263        33.91941         1.20936
C         52.54519        36.00873         0.51468
C         51.35973        35.28024         0.74613
C         52.57369        37.21463         0.14943
C         51.50413        38.03188        -0.24398
C         52.60442        40.13832        -1.30757
C         51.58052        39.52054        -0.37796
C         52.61335        41.36071        -1.54915
C         51.49882        42.26207        -1.54705
C         51.34980        43.64206        -1.74781
O         34.91887        31.34547        -2.89434
O         32.55946        32.59753        -2.77919
O         45.46211        36.29397        -1.92550
O         37.47579        45.22261        -0.22061
O         34.79152        35.91074        -2.25273
O         43.39178        40.00170        -2.22618
O         47.86625        31.85555         3.11465
O         40.97268        35.46921        -2.24043
O         43.81420        26.97029        -0.39664
O         48.66190        35.23490         2.13878
O         50.52958        31.94574         3.41945
H         49.82586        32.41401         3.92336
O         49.32453        29.37625         3.56047
H         50.10562        29.96674         3.67441
O         31.15877        40.00041        -0.43446
H         30.42064        39.43835        -0.75269
O         44.26558        29.29376         3.16397
H         44.94678        29.02505         3.81840
O         32.30562        36.52203        -2.18682
H         33.10499        36.61263        -2.75845
O         51.86955        39.99027         0.94164
H         52.00632        40.96048         0.91300
O         31.29310        42.81151         1.05942
H         30.45255        43.23409         1.32780
O         44.24573        42.15874         1.28717
H         43.56215        42.72557         1.70651
O         49.24086        37.67987        -2.20332
H         48.41241        37.91728        -2.67270
O         36.41964        43.72646         3.78116
H         35.72741        43.92018         4.44853
