         424
 CSIRO Nanostructure Databank - Neutral Graphene Oxide Data Set
C          1.47865         1.97791         1.20541
C          1.45460         3.38073         1.24148
C          2.63934         1.30100         0.87198
C          2.59665         4.13740         0.92732
C          1.47959         6.30959         1.43420
C          1.49134         7.69494         1.51127
C          2.60456         5.59118         0.98745
C          2.62644         8.43949         1.13260
C          1.57081        10.59939         1.79774
C          1.58614        11.98118         1.93035
C          2.63109         9.88878         1.17331
C          2.58204        12.77383         1.33092
C          1.50835        14.93095         1.93875
C          1.48598        16.33997         1.90401
C          2.56356        14.18773         1.38506
C          2.60541        17.07460         1.51478
C          2.61833        18.49213         1.45184
C          3.81945         2.02299         0.54535
C          3.79368         3.45680         0.55476
C          5.01721         1.34551         0.22900
C          4.96616         4.18867         0.19484
C          3.77247         6.31801         0.60153
C          3.77749         7.74573         0.66020
C          4.94960         5.62501         0.17611
C          4.93445         8.47804         0.23666
C          3.73851        10.60433         0.65472
C          3.59423        12.09333         0.42697
C          4.91197         9.92710         0.24364
C          4.91481        12.81563         0.36151
C          3.62935        14.96170         0.62894
C          3.88887        16.30285         1.31695
C          4.92460        14.20398         0.44814
C          4.99242        17.08292         0.64311
C          3.74708        19.19447         1.07770
C          4.95584        18.53828         0.67511
C          6.19080         2.05334        -0.08285
C          6.16004         3.49355        -0.12431
C          7.40667         1.36815        -0.33932
C          7.34093         4.21771        -0.46449
C          6.09455         6.35546        -0.24925
C          6.05974         7.78181        -0.25161
C          7.30897         5.64432        -0.58225
C          7.17898         8.54513        -0.83915
C          6.09838        10.66429        -0.09001
C          6.10219        12.09670         0.04570
C          7.27032        10.00342        -0.57243
C          7.29939        12.82110        -0.18904
C          6.11248        14.94238         0.16967
C          6.08420        16.40387         0.16964
C          7.28184        14.23884        -0.15266
C          7.24444        17.17007        -0.42924
C          6.11049        19.26421         0.38874
C          7.32480        18.60706         0.03675
C          8.58991         2.06174        -0.62713
C          8.55456         3.51256        -0.70772
C          9.81722         1.36515        -0.78124
C          9.72709         4.22883        -1.01179
C          8.49748         6.33873        -0.91440
C          8.46722         7.78766        -1.18615
C          9.72620         5.64989        -1.05807
C          9.73636         8.54040        -1.22039
C          8.46624        10.70128        -0.80947
C          8.51525        12.10513        -0.53925
C          9.60971        10.02076        -1.58491
C          9.73723        12.79815        -0.54030
C          8.53018        14.96278        -0.59666
C          8.55295        16.44121        -0.28613
C          9.73656        14.22776        -0.02760
C          9.74342        17.11428        -0.22087
C          8.54275        19.26464         0.06734
C          9.79417        18.56967        -0.06995
C         11.02215         2.03874        -1.05187
C         10.95488         3.48994        -1.31701
C         12.26728         1.39604        -1.08290
C         12.26393         4.28603        -1.30467
C         10.96822         6.39782        -1.10341
C         10.93317         7.85408        -1.09966
C         12.19733         5.73512        -1.05960
C         12.20248         8.55728        -0.96943
C         10.98733        10.79143        -1.57734
C         10.96110        12.15178        -0.87684
C         12.21313         9.99825        -1.10525
C         12.16239        12.81531        -0.73521
C         11.00645        14.98951        -0.26325
C         11.00890        16.37807        -0.26941
C         12.27660        14.19199        -0.13093
C         12.23055        17.13040        -0.21830
C         11.01030        19.23137         0.02723
C         12.26694        18.52323         0.00376
C         13.50197         2.11867        -1.06122
C         13.49420         3.54817        -1.01821
C         14.73208         1.43300        -0.93142
C         14.67156         4.27070        -0.71983
C         13.42318         6.42897        -0.74511
C         13.38374         7.87158        -0.68724
C         14.61296         5.70918        -0.54984
C         14.60674         8.64137        -0.20893
C         13.41722        10.67910        -1.07792
C         13.39192        12.15047        -1.20684
C         14.68286        10.03284        -0.78641
C         14.67613        12.89795        -1.33274
C         13.41297        15.01954        -0.78811
C         13.47084        16.34919        -0.08102
C         14.71605        14.28346        -0.77951
C         14.75091        17.00297         0.32627
C         13.52369        19.17541         0.15867
C         14.76428        18.48433         0.21627
C         15.95067         2.13273        -0.78354
C         15.90206         3.55475        -0.68563
C         17.19242         1.42234        -0.63222
C         17.14554         4.31974        -0.64243
C         15.81831         6.41008         0.03238
C         15.90712         7.88377        -0.32466
C         17.09707         5.71083        -0.27647
C         17.11057         8.53879        -0.43857
C         15.89039        10.67696        -0.92757
C         15.96296        12.08459        -1.53548
C         17.16258         9.98468        -0.69942
C         17.15741        12.76670        -0.91498
C         15.84486        14.78077        -0.20583
C         16.05635        16.19329         0.41351
C         16.95719        13.85156        -0.12199
C         17.27605        16.98235        -0.08695
C         15.99374        19.12335         0.03175
C         17.23200        18.40841        -0.15466
C         18.41893         2.05753        -0.40460
C         18.48916         3.52942        -0.50007
C         19.63841         1.37776        -0.16071
C         19.66667         4.21305         0.04391
C         18.31632         6.41607         0.10336
C         18.38305         7.85487        -0.19939
C         19.59011         5.66133         0.30464
C         19.60631         8.48173        -0.25382
C         18.38486        10.61781        -0.75980
C         18.48575        12.07758        -1.13442
C         19.68555         9.84984        -0.87517
C         19.74333        12.77283        -0.63074
C         18.75253        14.96740        -0.13163
C         18.53433        16.36686        -0.33162
C         19.80661        14.21460        -0.67138
C         19.68537        17.08900        -0.73053
C         18.42401        19.13611        -0.41046
C         19.67288        18.51178        -0.68717
C         20.86061         2.06594         0.05283
C         20.85280         3.51351         0.20866
C         22.09362         1.39404         0.16180
C         22.09163         4.20743         0.50817
C         20.84212         6.42716         0.32846
C         20.84417         7.79151         0.08951
C         22.05165         5.68247         0.70376
C         22.10074         8.52866         0.09626
C         20.93311        10.62351        -0.48675
C         20.94041        12.07374        -0.59715
C         22.08902         9.95973        -0.16183
C         22.19317        12.79582        -0.63383
C         20.98934        14.91146        -0.97732
C         20.90417        16.38086        -1.27807
C         22.20991        14.21112        -0.93308
C         22.18894        17.10337        -1.00657
C         20.90529        19.21601        -0.84901
C         22.16148        18.52837        -0.91904
C         23.31537         2.08820         0.36408
C         23.29360         3.52945         0.54258
C         24.54371         1.40157         0.36657
C         24.58265         4.23589         0.93674
C         23.35484         6.45877         0.70841
C         23.31014         7.88034         0.33210
C         24.60638         5.70280         0.56674
C         24.57474         8.56351         0.10607
C         23.35946        10.73051         0.13419
C         23.40267        12.11256        -0.46625
C         24.59073         9.91548        -0.14137
C         24.64081        12.77983        -0.65099
C         23.42792        14.93311        -0.98886
C         23.41115        16.38443        -1.03281
C         24.66900        14.22031        -0.87510
C         24.63373        17.08898        -1.03683
C         23.40445        19.21058        -0.85831
C         24.63709        18.51080        -0.92620
C         25.80277         2.07684         0.38431
C         25.83018         3.50945         0.49022
C         27.00975         1.37023         0.22859
C         27.02900         4.20024         0.31591
C         25.79553         6.37850         0.35310
C         25.82044         7.81241         0.16551
C         27.05137         5.65545         0.30692
C         27.03948         8.49987         0.17164
C         25.85258        10.56731        -0.63010
C         25.86511        12.06975        -0.54999
C         27.08625         9.92837        -0.05674
C         27.10298        12.73168        -0.58088
C         25.87820        14.89817        -0.95927
C         25.91455        16.35477        -1.32987
C         27.16648        14.14338        -1.09339
C         27.15172        17.05795        -0.82727
C         25.89093        19.18550        -0.83074
C         27.12361        18.48752        -0.72826
C         28.25983         2.04363         0.17812
C         28.26902         3.48195         0.18651
C         29.48858         1.35240         0.08062
C         29.50225         4.17091         0.15601
C         28.24447         6.35569         0.24457
C         28.27755         7.78454         0.30671
C         29.55175         5.66578        -0.02240
C         29.50267         8.48416         0.42774
C         28.25733        10.64094         0.05734
C         28.30846        12.05014        -0.26172
C         29.46826         9.97451         0.65729
C         29.54132        12.76185        -0.18070
C         28.37595        14.90639        -0.63626
C         28.34979        16.33804        -0.63111
C         29.55239        14.19450        -0.33754
C         29.58066        17.05100        -0.40049
C         28.33596        19.18140        -0.49193
C         29.56387        18.49501        -0.35791
C         30.72395         2.04161         0.08433
C         30.72170         3.47939         0.17215
C         31.96220         1.36165        -0.02201
C         31.97527         4.20574         0.27828
C         30.68335         6.30363         0.77662
C         30.73118         7.80261         0.55721
C         31.98701         5.60220         0.51075
C         31.95913         8.50016         0.60945
C         30.77031        10.66166         0.33436
C         30.76888        12.06604         0.09692
C         31.97499         9.94320         0.45909
C         32.00558        12.78037         0.08680
C         30.79975        14.90405        -0.21706
C         30.79332        16.34771        -0.27042
C         32.00448        14.18987        -0.08473
C         32.02859        17.06834        -0.12262
C         30.77651        19.19367        -0.17758
C         32.01037        18.51065        -0.07069
C         33.19441         2.05834         0.01533
C         33.19774         3.48860         0.19861
C         34.42811         1.37905        -0.09467
C         34.43482         4.18135         0.38009
C         33.20181         6.31624         0.66398
C         33.20279         7.78275         0.72588
C         34.41194         5.59270         0.62672
C         34.40916         8.50274         0.75609
C         33.22696        10.64686         0.43447
C         33.24501        12.06967         0.29468
C         34.44340         9.92699         0.59903
C         34.47291        12.77514         0.41966
C         33.31079        14.90136        -0.33099
C         33.25264        16.37778        -0.03012
C         34.51010        14.21307         0.27278
C         34.46229        17.08191         0.13337
C         33.23065        19.21094         0.03473
C         34.45944        18.52352         0.12484
C         35.66084         2.06254         0.05501
C         35.65547         3.45737         0.34272
C         36.90509         1.38543        -0.10547
C         36.93882         4.11104         0.79878
C         35.67780         6.29092         0.89815
C         35.68430         7.79189         0.95704
C         36.94702         5.60816         0.43527
C         36.96720         8.49926         0.72581
C         35.69123        10.63486         0.63103
C         35.69470        12.06017         0.61752
C         36.94037         9.93028         0.66575
C         36.92984        12.77079         0.79216
C         35.65949        14.93159         0.51344
C         35.69399        16.36988         0.32245
C         36.87401        14.25797         1.10662
C         36.90795        17.07192         0.35545
C         35.69402        19.21072         0.15441
C         36.91579        18.50876         0.21629
C         38.13907         2.08533        -0.10358
C         38.17989         3.45947         0.23900
C         39.35453         1.43304        -0.49981
C         39.38232         4.20945         0.12167
C         38.21553         6.31385         0.94719
C         38.17098         7.80431         0.66741
C         39.43606         5.61654         0.39160
C         39.41022         8.51217         0.55441
C         38.16392        10.64565         0.69317
C         38.13307        12.07207         0.83668
C         39.41324         9.93685         0.63711
C         39.41260        12.77197         1.10142
C         38.15656        15.00020         0.79199
C         38.16368        16.35944         0.50835
C         39.42170        14.31417         1.06862
C         39.41146        17.08827         0.41323
C         38.14837        19.19349         0.15054
C         39.38394        18.50654         0.21513
C         40.52434         2.14072        -0.60833
C         40.56587         3.54167        -0.33127
C         41.75611         4.29016        -0.50457
C         40.61678         6.33829         0.19061
C         40.63642         7.79152         0.39942
C         41.77877         5.64880        -0.26468
C         41.83583         8.51351         0.39359
C         40.66007        10.63945         0.65217
C         40.68166        12.08088         0.84785
C         41.84852         9.90201         0.53146
C         41.85175        12.82613         0.83333
C         40.69432        14.99213         0.78954
C         40.66449        16.42215         0.52128
C         41.85922        14.24184         0.80199
C         41.85394        17.16970         0.39224
C         40.60644        19.22146         0.10276
C         41.81928        18.55297         0.18240
O         39.39672        13.55865         2.34502
O         22.64181         6.14193         1.98024
O         13.85333        16.40834         1.35706
O         18.73579         6.01417         1.50400
O         11.28775        11.09106        -2.97436
O         18.06074         4.05498        -1.78713
O         11.60835         3.88580        -2.56116
O         35.72602         6.95999         2.20383
O         17.97445        14.26479         0.76368
O          7.48138         8.14931        -2.21160
O         13.03349        15.32122        -2.14629
H         13.11314        14.48295        -2.66363
O         29.86647         5.90818        -1.42902
H         29.15865         5.50090        -1.97079
O         36.97820         5.71581        -1.00851
H         36.27495         5.13869        -1.37541
O          8.59349        14.86325        -2.04650
H          7.87833        15.44641        -2.39618
O         14.39294         8.81383         1.23629
H         14.64225         7.95143         1.65766
O         36.95952         3.94122         2.24109
H         37.67675         4.52832         2.59333
O          3.10043        15.20542        -0.69823
H          3.00099        14.32259        -1.12768
O         26.05977        16.39462        -2.80665
H         26.71398        15.68428        -3.03260
O         16.32303        15.98555         1.81915
H         15.45230        15.87594         2.26494
O         16.15430        11.90692        -2.96131
H         15.26203        12.00208        -3.37748
O         12.54622        13.99495         1.28765
H         12.85636        14.85203         1.66554
O         13.81826        12.75037        -2.54792
H         12.04623        11.71365        -3.01187
O         38.28856         6.19795         2.40001
H         37.46716         6.63121         2.75045
O         15.63238         6.36563         1.51781
H         16.53274         6.38406         1.91770
O         23.36585        10.96207         1.59388
H         23.31029        10.08423         2.02963
O         18.74861        12.09885        -2.58825
H         17.88156        11.96943        -3.05196
O         36.72987        14.34395         2.56720
H         37.58525        14.01830         2.94184
O          4.37532        15.96802         2.65414
H          4.55905        16.80755         3.12500
O         20.71283        16.43481        -2.75639
H         20.81036        17.37675        -3.01601
O         25.89441        10.27408        -2.08713
H         26.79543        10.50262        -2.40171
O         30.37509         6.09808         2.18673
H         31.16305         6.35178         2.71139
O          9.58177        14.16528         1.42286
H         10.45005        13.87439         1.78680
O         33.51923        14.81340        -1.79462
H         32.75740        15.25922        -2.22316
O         29.30265        10.14061         2.11850
H         30.03299         9.64906         2.55139
O          3.01941        12.24315        -0.93672
H          2.20873        11.69066        -0.96990
O         19.84233         9.60940        -2.31889
H         19.66439        10.48128        -2.75789
O         27.37378        13.97813        -2.58559
H         26.64773        13.39556        -2.90151
O          9.09440        10.00913        -2.93721
H          9.78700        10.37705        -3.53275
O          6.98656        17.21500        -1.88812
H          7.60444        17.87566        -2.26886
O         24.60272         4.20132         2.40757
H         23.87200         4.79877         2.70266
H          0.56658         1.41722         1.45356
H          0.51624         3.87829         1.51999
H          2.66070         0.20199         0.85677
H          0.56756         5.77856         1.73661
H          0.58354         8.20389         1.86025
H          0.74850        10.04635         2.26919
H          0.79246        12.45748         2.52277
H          0.63500        14.41299         2.36138
H          0.56638        16.86711         2.20102
H          1.69699        19.03973         1.70327
H          5.03547         0.24565         0.24276
H          3.72267        20.29405         1.06201
H          7.42269         0.26955        -0.28433
H          6.11835        20.35407         0.54583
H          9.82932         0.27385        -0.64086
H          8.56638        20.33826         0.31260
H         12.30355         0.30108        -0.97866
H         11.01989        20.32330         0.16542
H         14.73824         0.33321        -0.95035
H         13.54447        20.27585         0.17576
H         17.15777         0.32258        -0.63680
H         16.01053        20.21791        -0.08025
H         19.64728         0.27764        -0.18398
H         18.37656        20.23579        -0.38611
H         22.12004         0.29961         0.04986
H         20.90533        20.31374        -0.78760
H         24.53818         0.30649         0.25467
H         23.41566        20.30637        -0.76096
H         26.98773         0.27214         0.16275
H         25.89834        20.28296        -0.74817
H         29.48633         0.25375         0.02288
H         28.32418        20.27945        -0.42590
H         31.96849         0.26601        -0.12169
H         30.76572        20.29314        -0.14414
H         34.43264         0.29314        -0.27134
H         33.22531        20.31087         0.02645
H         36.89969         0.31143        -0.34402
H         35.70420        20.30924         0.09925
H         39.32847         0.35932        -0.73590
H         38.14968        20.28700         0.03012
H         41.44877         1.63861        -0.92944
H         42.66457         3.77822        -0.85399
H         42.71161         6.20155        -0.43883
H         42.79789         7.99257         0.30003
H         42.81995        10.41332         0.54714
H         42.82125        12.32117         0.72630
H         42.83163        14.73536         0.66952
H         42.82931        16.67185         0.47223
H         40.57874        20.30977        -0.04954
H         42.76194        19.11039         0.09125
