         200
 CSIRO Nanostructure Databank - Neutral Graphene Oxide Data Set
C        -11.00737         0.60971         0.63923
C         -9.79840         1.36312         0.40645
C         -8.57501         0.64691         0.17176
C         -7.36523         1.37264        -0.03867
C         -6.14832         0.65936        -0.28515
C         -4.93221         1.36941        -0.49713
C         -3.74246         0.63755        -0.70502
C         -2.47916         1.36374        -0.91264
C         -1.24451         0.61780        -0.54095
C          0.03534         1.37628        -0.43659
C          1.29947         0.63626        -0.58119
C          2.50444         1.36974        -0.60287
C          3.76266         0.67693        -0.58254
C          4.97108         1.39535        -0.41524
C          6.24198         0.70591        -0.34447
C          7.38518         1.34977         0.05016
C          8.61362         0.56144         0.44427
C          9.88758         1.38450         0.45884
C         11.11900         0.64183         0.56546
C         -9.79668         2.75653         0.41856
C         -8.59215         3.50085         0.24481
C         -7.36141         2.79213         0.01753
C         -6.13655         3.52097        -0.13894
C         -4.92263         2.81787        -0.41751
C         -3.72863         3.55914        -0.58810
C         -2.45681         2.86082        -0.87724
C         -1.17456         3.56208        -0.61170
C          0.02074         2.85089        -0.55570
C          1.27914         3.52853        -0.49737
C          2.46882         2.81193        -0.56602
C          3.75079         3.54708        -0.66901
C          4.99222         2.82920        -0.33647
C          6.14892         3.53225        -0.01003
C          7.32677         2.77381         0.54325
C          8.63606         3.51754         0.41697
C          9.85683         2.75941         0.45685
C         -8.58425         4.90261         0.32648
C         -7.36732         5.64553         0.28594
C         -6.12314         4.93470         0.01534
C         -4.91235         5.66187        -0.13613
C         -3.72562         4.96231        -0.48017
C         -2.47314         5.70546        -0.74025
C         -1.18047         5.00398        -0.58878
C         -0.00921         5.71961        -0.40201
C          1.24820         4.96876        -0.05229
C          2.49390         5.75684        -0.29670
C          3.75599         5.05498        -0.52652
C          4.99776         5.72154        -0.12164
C          6.17674         4.97096         0.04936
C          7.40871         5.65854         0.33205
C          8.63064         4.89407         0.39405
C         -7.35438         7.01158         0.53003
C         -6.06771         7.72940         0.79983
C         -4.87867         7.08957         0.11717
C         -3.72522         7.83090        -0.03560
C         -2.47559         7.21061        -0.51570
C         -1.20410         7.88125        -0.19909
C          0.00597         7.15782        -0.23004
C          1.23636         7.83953         0.01909
C          2.49109         7.12911        -0.06056
C          3.73332         7.83576         0.10943
C          4.96882         7.11936         0.13276
C          6.19566         7.79613         0.42374
C          7.39755         7.05443         0.47938
C         -6.11443         9.22076         0.57868
C         -4.97748         9.92700         0.41009
C         -3.69088         9.25678         0.24933
C         -2.49375         9.93666         0.29472
C         -1.21825         9.26129         0.16430
C         -0.00386         9.92829         0.37509
C          1.23879         9.24239         0.28062
C          2.48105         9.91562         0.46229
C          3.71136         9.23612         0.38707
C          4.96586         9.90277         0.62202
C          6.15147         9.21384         0.64200
C        -10.99728        -0.75465         0.66772
C         -9.78683        -1.50196         0.44396
C         -8.56518        -0.77658         0.16847
C         -7.36800        -1.48413        -0.09192
C         -6.15052        -0.76554        -0.34030
C         -4.94815        -1.46624        -0.63204
C         -3.72073        -0.78192        -0.75744
C         -2.45644        -1.52156        -0.87691
C         -1.22222        -0.83932        -0.76421
C          0.02555        -1.51056        -0.72889
C          1.27498        -0.78225        -0.64522
C          2.51581        -1.49274        -0.65937
C          3.75201        -0.77247        -0.59607
C          4.97403        -1.48223        -0.55547
C          6.24599        -0.74224        -0.66791
C          7.54804        -1.49228        -0.63593
C          8.83929        -0.69198        -0.42734
C          9.97226        -1.49510         0.17448
C         11.15149        -0.72599         0.49962
C         -9.77378        -2.89300         0.50725
C         -8.59071        -3.64150         0.26145
C         -7.36544        -2.92963        -0.08883
C         -6.22014        -3.63549        -0.41346
C         -5.00943        -2.91940        -0.84780
C         -3.72171        -3.69102        -1.04599
C         -2.43627        -2.94358        -0.95226
C         -1.20644        -3.63011        -0.89526
C          0.03567        -2.93688        -0.79423
C          1.28372        -3.65544        -0.77885
C          2.53117        -2.92630        -0.72711
C          3.77900        -3.60282        -0.67013
C          5.00200        -2.89727        -0.55711
C          6.26252        -3.61460        -0.38197
C          7.48813        -2.93260        -0.30947
C          8.68412        -3.60764         0.09467
C          9.90139        -2.85103         0.32538
C         -8.56448        -5.03477         0.39781
C         -7.39490        -5.79083         0.13750
C         -6.25398        -5.13202        -0.59845
C         -4.90873        -5.79515        -0.36057
C         -3.74805        -5.13649        -0.68799
C         -2.48648        -5.88326        -0.81096
C         -1.18250        -5.10728        -0.96366
C          0.06941        -5.81152        -0.64685
C          1.26916        -5.07653        -0.70843
C          2.52718        -5.83755        -0.77125
C          3.83524        -5.07071        -0.77318
C          5.04580        -5.77389        -0.31589
C          6.24382        -5.03534        -0.16385
C          7.45257        -5.72315         0.18085
C          8.65348        -4.98225         0.32970
C         -7.30493        -7.13605         0.46846
C         -6.07871        -7.86081         0.37469
C         -4.87801        -7.19783         0.00561
C         -3.63620        -7.89838         0.06400
C         -2.42358        -7.25750        -0.29720
C         -1.17845        -7.91574        -0.18087
C          0.05923        -7.21565        -0.38334
C          1.29689        -7.90932        -0.16668
C          2.53418        -7.23939        -0.32545
C          3.76140        -7.89173        -0.07539
C          5.00747        -7.16392        -0.07108
C          6.22269        -7.84299         0.28198
C          7.41630        -7.12509         0.38445
C         -6.02938        -9.24095         0.75182
C         -4.84429        -9.92995         0.78812
C         -3.60753        -9.28190         0.46141
C         -2.38422        -9.95711         0.51912
C         -1.15969        -9.29837         0.23814
C          0.07018        -9.96920         0.38795
C          1.29727        -9.30015         0.19919
C          2.53806        -9.96422         0.38996
C          3.75173        -9.28442         0.27837
C          5.00565        -9.94868         0.54113
C          6.18231        -9.26177         0.54304
O         -1.86155        -5.68435        -2.13242
O         -4.54525        -3.34347        -2.21481
O          3.83478         4.39383        -1.86681
O         -6.52560        -5.33698        -2.02861
H         -5.86141        -4.78948        -2.51592
O          6.93792        -1.13258        -1.92538
O         -2.42040         2.12047        -2.16662
O          1.19856         4.84807         1.44176
H          0.42632         4.28001         1.65609
O         -5.82849         7.56367         2.25624
H         -5.02258         8.07990         2.47300
O          3.27425        -5.60641        -2.02157
O          9.30756        -0.23830        -1.71456
H          8.54559        -0.31461        -2.33805
O          8.36064         0.11587         1.80686
H          8.11404         0.92381         2.31838
O         -0.72998         0.97342         0.79441
O          7.09703         2.65693         2.01319
H          6.16173         2.38543         2.13666
O         -2.54429         6.63520        -1.86889
H         12.09345        -1.26281         0.69072
H         12.04775         1.20189         0.75570
H         10.80709         3.31778         0.47311
H          9.58668         5.44044         0.40886
H          8.34295         7.58188         0.67732
H          7.09303         9.74604         0.84266
H          4.95632        10.98645         0.81046
H          2.47456        10.99413         0.68087
H         -0.00831        11.00138         0.61764
H         -2.49186        11.01908         0.49329
H         -4.99877        11.02631         0.35968
H         -7.07949         9.73683         0.69452
H         -8.30045         7.53501         0.73688
H         -9.52737         5.43760         0.51314
H        -10.73686         3.29997         0.59604
H        -11.94315         1.16176         0.81047
H        -11.92577        -1.31158         0.86208
H        -10.70278        -3.43274         0.74547
H         -9.45774        -5.55238         0.78056
H         -8.18291        -7.64664         0.89399
H         -6.96889        -9.74459         1.02253
H         -4.82513       -10.98919         1.08282
H         -2.36321       -11.01573         0.81830
H          0.07338       -11.02641         0.69229
H          2.53593       -11.03061         0.66080
H          4.98929       -11.02511         0.76659
H          7.12690        -9.77791         0.76941
H          8.34596        -7.65246         0.64547
H          9.57322        -5.50387         0.63288
H         10.77193        -3.39991         0.71800
