         490
 CSIRO Nanostructure Databank - Neutral Graphene Oxide Data Set
C         38.11580        49.58183         2.42500
C         37.15630        50.14823         3.26687
C         38.08985        52.33417         2.84564
C         37.14094        51.52988         3.47039
C         40.20789        48.27343         0.87926
C         40.05156        49.76790         0.77533
C         39.07498        50.37475         1.78340
C         40.10332        52.62742         1.39236
C         39.06865        51.78048         1.99267
C         40.12250        54.00698         1.50986
C         42.71783        48.37186         1.03453
C         41.39010        47.65547         0.95978
C         42.57644        49.85460         0.77822
C         41.38024        50.48673         0.83770
C         42.51341        52.79970         0.60314
C         41.26338        51.97133         0.76305
C         42.50102        54.23352         0.93155
C         41.27750        54.79943         1.25153
C         45.21028        45.71456         0.14411
C         44.11648        46.32925         0.60194
C         45.04597        48.53311        -0.03055
C         43.76227        47.71665         0.10914
C         45.07150        49.92678         0.18778
C         43.86069        50.61213         0.71492
C         45.00363        52.89437         0.26138
C         43.82682        52.10092         0.67670
C         44.96308        54.25581         0.36870
C         43.75742        54.95559         0.81833
C         45.05673        57.02827         1.02213
C         43.84029        56.30938         1.11560
C         47.47006        44.30324        -1.11545
C         47.44462        45.71086        -0.99760
C         46.10279        46.40609        -0.86339
C         47.37933        48.61315        -0.73941
C         46.19464        47.88561        -0.52226
C         47.41663        50.00941        -0.49480
C         46.23096        50.67341        -0.09978
C         47.50004        52.81484         0.35280
C         46.23489        52.18776        -0.24343
C         47.49325        54.31986         0.16498
C         46.17967        55.06128        -0.04778
C         47.47350        57.16931         0.51621
C         46.22154        56.45295         0.55002
C         47.52750        58.57651         0.72557
C         49.89669        44.30203        -1.36026
C         48.66809        43.62116        -1.29463
C         49.88931        45.73970        -1.29713
C         48.63580        46.42616        -1.11606
C         49.85699        48.68073        -1.37139
C         48.58309        47.90544        -1.22817
C         49.83346        50.12102        -1.01367
C         48.67205        50.76030        -0.61640
C         49.92753        52.86071        -0.21878
C         48.73642        52.15741        -0.22459
C         49.97370        54.25204         0.38234
C         48.66830        55.00812         0.21012
C         49.93326        57.15287         0.35432
C         48.69340        56.46534         0.31683
C         49.96975        58.56458         0.63335
C         48.72610        59.24784         0.78012
C         52.42941        41.50789        -1.29903
C         51.21085        42.17377        -1.32215
C         52.38790        44.29033        -1.51202
C         51.16427        43.58127        -1.41444
C         52.34946        45.75100        -1.69934
C         51.09150        46.46279        -1.43199
C         52.41649        48.63727        -1.40103
C         51.13569        47.91704        -1.05902
C         52.39621        50.10031        -1.44212
C         51.06995        50.88688        -1.20945
C         52.35005        52.97563        -0.73168
C         51.14186        52.26736        -0.70105
C         52.39664        54.37620        -0.41004
C         51.17456        55.06514        -0.06429
C         52.37589        57.29245        -0.25922
C         51.15413        56.44204         0.05522
C         52.48908        58.43603         0.74954
C         51.21081        59.24101         0.80696
C         52.51930        61.24148         1.32007
C         51.30193        60.59237         1.19792
C         55.03441        40.16237        -1.92787
C         54.91110        41.43062        -1.11561
C         53.64169        42.20858        -1.34066
C         54.89130        44.37148        -1.34032
C         53.63866        43.62113        -1.43735
C         54.90957        45.76878        -1.35844
C         53.66546        46.51133        -1.63972
C         54.88297        48.67562        -1.32273
C         53.63552        47.97403        -1.39252
C         54.86202        50.10540        -1.25148
C         53.66013        50.80351        -1.23761
C         54.88795        52.98918        -0.90358
C         53.59778        52.28277        -1.14527
C         54.92346        54.37759        -0.31692
C         53.61379        55.10914        -0.43207
C         54.89341        57.22480        -0.28126
C         53.66589        56.50769        -0.29485
C         54.92154        58.64434         0.05277
C         53.73952        59.26843         0.53781
C         54.99434        61.34977         0.91271
C         53.75251        60.61543         0.94052
C         55.07681        62.69129         1.36065
C         57.43014        40.15310        -1.45610
C         56.22781        39.53550        -2.00109
C         57.39789        41.55670        -1.18858
C         56.16454        42.25525        -1.22278
C         57.36472        44.37742        -0.99607
C         56.13773        43.65780        -1.17921
C         57.34786        45.80675        -0.94386
C         56.12365        46.51122        -1.15589
C         57.34464        48.63762        -0.94076
C         56.11958        47.94468        -1.18794
C         57.39794        50.09475        -1.03640
C         56.16015        50.86245        -1.44574
C         57.37240        53.01263        -0.94181
C         56.14293        52.18183        -0.66013
C         57.37505        54.37921        -0.89028
C         56.06666        55.13483        -0.99680
C         57.34565        57.24631        -0.68143
C         56.13290        56.56898        -0.55675
C         57.32479        58.75042        -0.74825
C         56.12727        59.37177        -0.05182
C         57.39265        61.47864         0.36633
C         56.17664        60.72461         0.40761
C         57.45792        62.80259         0.83304
C         56.26418        63.39190         1.33149
C         59.91479        37.27333        -1.14493
C         58.62872        37.94845        -1.50128
C         59.75817        40.09613        -0.73070
C         58.61494        39.43203        -1.22029
C         59.80169        41.50720        -0.67072
C         58.61097        42.25305        -0.91618
C         59.80635        44.37227        -0.51550
C         58.58868        43.67308        -0.80866
C         59.79529        45.79964        -0.41257
C         58.55098        46.51615        -0.64316
C         59.64300        48.71383         0.02767
C         58.51855        47.92324        -0.61036
C         59.86762        50.03350        -0.73375
C         58.56366        50.78968        -0.88072
C         59.84357        53.02707        -0.82649
C         58.62720        52.25606        -1.27149
C         59.86097        54.40619        -0.87076
C         58.60939        55.14580        -0.93661
C         59.85732        57.32705        -1.13690
C         58.58060        56.54325        -0.87800
C         59.83762        58.74713        -0.58401
C         58.64477        59.38944        -0.38937
C         59.88969        61.61377        -0.20030
C         58.59599        60.85633        -0.21814
C         59.92853        62.95501         0.42147
C         58.72913        63.54099         0.86630
C         59.98052        65.54106         1.49411
C         58.79005        64.85106         1.41335
C         62.31887        35.69325        -0.44836
C         62.12117        37.08666        -0.04413
C         60.94228        37.86942        -0.51575
C         62.24916        40.01518        -0.39527
C         60.89954        39.32900        -0.09431
C         62.22583        41.50462        -0.11679
C         61.02530        42.20849        -0.33535
C         62.21931        44.34529        -0.00857
C         61.00902        43.64490        -0.28059
C         62.22297        45.77369         0.01563
C         60.99150        46.48613        -0.13374
C         62.21753        48.67699        -0.25736
C         60.98378        47.94752         0.27147
C         62.28879        50.12683        -0.13161
C         60.97996        50.88059        -0.06579
C         62.36999        52.98100        -0.58421
C         61.08537        52.24401        -0.72074
C         62.32375        54.45428        -0.50086
C         61.10881        55.15109        -0.70945
C         62.32901        57.26505        -0.58339
C         61.12027        56.56464        -0.77111
C         62.36608        58.73926        -0.94695
C         61.10161        59.48194        -0.54262
C         62.38175        61.65838        -0.58762
C         61.13664        60.83667        -0.34178
C         62.40887        62.99878         0.14858
C         61.17759        63.63943         0.53134
C         62.43519        65.71443         1.07508
C         61.20119        64.96609         1.05943
C         62.49322        67.10347         1.40483
C         64.63037        35.69289         0.39330
C         63.47056        35.03370        -0.15734
C         64.63586        37.09197         0.51210
C         63.37877        37.84419         0.39031
C         64.61261        39.99085         0.47031
C         63.42844        39.30854         0.23612
C         64.63008        41.44805         0.49241
C         63.42621        42.18196         0.22430
C         64.59774        44.34244         0.61557
C         63.42665        43.63055         0.27616
C         64.64581        45.76773         0.56181
C         63.46491        46.45922         0.21258
C         64.74241        48.64511         0.24205
C         63.53523        47.89304        -0.10740
C         64.73644        50.05588         0.17693
C         63.51641        50.78360        -0.08657
C         64.74860        52.91833         0.00093
C         63.56764        52.23383        -0.14076
C         64.72897        54.39383         0.12861
C         63.49687        55.16017        -0.18286
C         64.76380        57.30451         0.18595
C         63.51113        56.56822        -0.24513
C         64.83113        58.73356        -0.26191
C         63.61780        59.46343        -0.49711
C         64.88747        61.51737        -0.07433
C         63.62402        60.83339        -0.39527
C         64.91013        62.96871         0.20890
C         63.60703        63.69213         0.28758
C         64.84044        65.82781         0.51111
C         63.62991        65.06847         0.68873
C         64.83979        67.24159         0.72040
C         63.64564        67.83382         1.23296
C         67.12171        32.84825         0.75440
C         65.89943        33.54730         0.62903
C         66.97363        35.66756         1.24411
C         65.81439        34.93225         0.72697
C         67.03062        37.12760         1.08882
C         65.83973        37.83060         0.77921
C         67.03295        39.96442         1.01841
C         65.82816        39.25991         0.77773
C         67.02406        41.40590         1.07972
C         65.81488        42.11865         0.87833
C         67.01639        44.34143         1.46792
C         65.76532        43.58638         1.11158
C         67.10539        45.81281         1.21603
C         65.87629        46.51804         0.82789
C         67.02923        48.72553         1.26227
C         65.88265        47.91213         0.69871
C         67.16365        50.11333         0.65182
C         65.96047        50.80297         0.36954
C         67.23456        52.89701         0.13495
C         65.99609        52.21192         0.18409
C         67.25977        54.33488        -0.32025
C         66.03822        55.10607         0.12026
C         67.27537        57.21621        -0.10523
C         66.05031        56.55938        -0.07796
C         67.28553        58.64068        -0.12381
C         66.08583        59.37109        -0.24652
C         67.32004        61.50822        -0.59420
C         66.16120        60.82568        -0.37522
C         67.25643        63.00937        -0.92210
C         66.24218        63.72241         0.07448
C         66.88209        66.07301        -0.68504
C         65.95221        65.20591        -0.12842
C         67.06842        67.40412        -0.27727
C         66.01649        68.01997         0.42402
C         67.20914        70.14745         0.35767
C         66.12963        69.42904         0.74388
C         69.70427        31.43247         0.62132
C         69.62300        32.81932         0.88772
C         68.33507        33.48593         0.98662
C         69.55814        35.68359         1.36078
C         68.31336        34.89894         1.37865
C         69.49920        37.10213         1.44707
C         68.24920        37.81585         1.29676
C         69.47245        39.95631         1.39820
C         68.24640        39.24192         1.24059
C         69.46203        41.38958         1.33943
C         68.26841        42.09565         1.27691
C         69.60248        44.28163         1.68539
C         68.28806        43.55217         1.59340
C         69.63621        45.81658         1.77405
C         68.30167        46.47366         1.38846
C         69.65204        48.63575         1.05081
C         68.34088        47.95657         1.36256
C         69.63104        50.00224         0.45216
C         68.38636        50.79369         0.54285
C         69.72596        52.88971         0.14831
C         68.44252        52.18608         0.24290
C         69.75471        54.32481         0.10442
C         68.53787        55.07622        -0.00971
C         69.77916        57.19850         0.09229
C         68.53640        56.46802        -0.01625
C         69.80057        58.61897         0.09158
C         68.52788        59.42900         0.14484
C         69.85114        61.46406        -0.28431
C         68.61772        60.70558        -0.71343
C         69.95098        62.89526        -0.75083
C         68.64956        63.65263        -0.85610
C         69.85743        65.86542        -0.69493
C         68.78980        65.00218        -1.10761
C         69.70518        67.27426        -0.51723
C         68.38232        68.05772        -0.60023
C         69.66810        70.28866        -0.12493
C         68.38141        69.54134        -0.31662
C         69.77970        71.66655        -0.62470
C         72.11051        31.49348         0.79948
C         70.92636        30.77649         0.57814
C         72.05771        32.85854         1.05011
C         70.82846        33.55395         1.09520
C         71.98406        35.76084         1.44995
C         70.79299        35.00057         1.30305
C         71.94229        37.12612         1.63402
C         70.71240        37.83750         1.60558
C         71.84449        40.03526         2.07709
C         70.68188        39.26779         1.66478
C         71.88699        41.37732         1.92655
C         70.80134        42.05227         1.12651
C         71.90313        44.23076         0.77564
C         70.80782        43.55158         1.24393
C         71.91929        45.64208         0.67777
C         70.82891        46.43378         1.03873
C         72.09769        48.54831         0.62203
C         70.87629        47.83497         0.84346
C         72.16035        49.90503         0.45047
C         70.94318        50.69399         0.18680
C         72.16326        52.88987         0.21796
C         70.94367        52.17922         0.18085
C         72.19053        54.27275         0.22680
C         70.99361        55.02552         0.16943
C         72.21369        57.21121         0.23768
C         71.00599        56.47562         0.16406
C         72.21969        58.59458         0.23165
C         71.01114        59.32791         0.16241
C         72.22613        61.57179         0.26877
C         70.99374        60.80071         0.07851
C         72.25100        62.91771         0.22249
C         70.97107        63.71264         0.07883
C         72.14504        65.94515         0.33823
C         71.18269        65.14712        -0.48158
C         72.01116        67.29371         0.40767
C         70.85535        67.98769        -0.08499
C         72.18624        70.14351        -0.38661
C         70.93153        69.47347        -0.01236
C         72.21134        71.47327        -0.66706
C         70.99891        72.24250        -0.79059
O         67.70680        65.63465        -1.71092
O         69.15678        48.56802         2.43276
O         62.90727        48.15730        -1.41707
O         51.62055        50.69164        -2.55620
O         70.27647        70.05303         1.18648
O         61.93162        52.39989        -1.89511
O         66.06710        43.97723         2.52003
O         41.67381        52.47807        -0.56376
O         54.35506        52.95795        -2.25037
O         64.94157        62.01871         1.34958
O         59.06704        61.57123        -1.44381
O         65.41501        54.75932         1.41214
O         70.15832        50.06897        -0.91445
O         68.23956        69.03860        -1.68982
O         49.09906        48.34043        -2.55922
O         44.07666        51.39461         1.95562
O         67.46542        35.18977         2.53558
O         53.05782        46.18416        -2.93987
O         68.96597        43.73775         2.89557
O         62.37550        37.35223         1.38432
O         67.14985        54.30321        -1.78248
H         67.93012        53.82373        -2.13322
O         69.87022        46.13209         3.16640
H         69.34606        45.48409         3.69202
O         62.43964        39.86747        -1.84489
H         63.23630        40.38104        -2.09622
O         71.80015        64.99134        -1.81652
H         71.88745        65.88747        -2.20623
O         43.16771        47.61876        -1.20216
H         43.80064        47.11305        -1.77210
O         39.49164        50.03031        -0.54482
H         39.74989        50.93763        -0.81390
O         68.80860        60.35798        -2.10592
H         69.37742        61.05647        -2.50736
O         56.26083        51.13113        -2.85722
H         55.53109        51.75700        -3.08895
O         62.40603        58.77373        -2.40379
H         61.57238        58.34748        -2.72924
O         45.43927        46.30778        -2.16888
H         46.02388        46.73624        -2.83036
O         54.83818        40.99864         0.29403
H         55.66457        40.50633         0.48892
O         46.05112        55.25633        -1.49550
H         46.86262        55.70899        -1.80836
O         46.33612        52.43771        -1.67382
H         45.44797        52.34562        -2.07664
O         71.12334        41.78045        -0.29044
H         71.20924        40.80718        -0.38412
O         52.64133        57.80049         2.06428
H         52.68516        58.51767         2.73172
O         59.89046        57.52786        -2.59882
H         59.08041        58.04520        -2.82420
O         62.32588        62.01555        -2.00879
H         61.38376        62.14876        -2.25027
O         47.51232        52.56874         1.77979
H         48.35424        52.94573         2.12958
O         56.18372        51.79073         0.73984
H         56.02855        52.60602         1.27573
O         57.19835        59.05387        -2.19611
H         57.28936        60.02800        -2.29513
O         70.42398        63.90247         1.40027
H         70.19556        63.02356         1.76984
O         66.70135        63.13904        -2.24330
H         67.30950        62.70809        -2.87909
O         64.67556        57.37400         1.66399
H         64.82909        56.44797         1.98425
O         52.17742        57.89254        -1.56536
H         52.24489        57.18407        -2.23901
O         58.34186        37.70963        -2.89609
H         59.03383        38.15682        -3.42564
O         43.24851        48.23253         2.38049
H         42.79120        48.87332         2.96366
O         51.13283        47.93778         0.43408
H         51.89171        47.40073         0.74814
O         50.12798        54.03076         1.83279
H         50.28208        54.90768         2.24617
O         61.23690        47.93899         1.70555
H         60.40846        47.66964         2.15842
O         59.10744        49.03844         1.34743
H         58.29788        49.58021         1.21311
O         68.40451        59.92463         1.51963
H         68.16579        59.16726         2.09462
O         55.75238        55.18829        -2.41704
H         56.35654        55.83667        -2.83578
O         58.77276        52.21957        -2.73915
H         58.65732        53.13301        -3.07769
O         66.89516        63.68641         1.36378
H         66.46655        62.96255         1.88233
O         60.64355        39.39307         1.32650
H         61.21083        38.70107         1.75278
O         60.30584        49.69377        -2.06246
H         60.16320        50.47657        -2.64139
O         60.65014        51.17420         1.31118
H         60.46118        50.31997         1.76957
O         70.41147        62.74738        -2.13994
H         70.94029        63.55541        -2.36936
O         66.60846        48.98636         2.63932
H         67.43242        49.12841         3.16082
O         55.22471        54.26985         1.10433
H         55.13283        55.16347         1.49964
H         38.11136        48.49437         2.26897
H         36.41441        49.50723         3.76271
H         38.07315        53.41682         3.03121
H         36.38759        51.98315         4.12942
H         39.29185        47.66982         0.78818
H         39.24220        54.53045         1.90907
H         41.41987        46.55500         0.98980
H         41.19678        55.88135         1.42825
H         45.47755        44.70659         0.49485
H         43.46442        45.83626         1.33795
H         45.05756        58.07023         1.37268
H         42.95283        56.84597         1.47809
H         46.52809        43.73898        -1.08938
H         46.59553        59.14630         0.83883
H         48.63555        42.52733        -1.38245
H         48.71452        60.33369         0.94181
H         52.44183        40.41405        -1.19688
H         50.28662        41.58642        -1.25025
H         52.51610        62.29312         1.63376
H         50.38834        61.17050         1.39577
H         54.13301        39.69737        -2.35323
H         54.18407        63.19602         1.75238
H         56.32408        38.56690        -2.51250
H         56.26533        64.42542         1.69924
H         59.96692        36.20630        -1.41023
H         57.80114        37.45129        -0.92484
H         59.97264        66.55554         1.91421
H         57.87938        65.34447         1.77523
H         61.52755        35.17273        -1.00483
H         61.59012        67.62042         1.75622
H         63.55187        33.97413        -0.43534
H         63.62495        68.91041         1.45127
H         67.10019        31.76853         0.55301
H         65.01370        32.96164         0.34778
H         67.29523        71.20409         0.65298
H         65.32500        69.92433         1.30454
H         68.78698        30.85167         0.45649
H         68.85998        72.21027        -0.88581
H         73.08045        30.97824         0.77166
H         70.96444        29.69723         0.37605
H         73.00146        33.39440         1.21604
H         72.96348        35.26577         1.43147
H         72.88573        37.67648         1.75042
H         72.67096        39.51408         2.58124
H         72.74935        41.96343         2.27480
H         72.76949        43.66323         0.40888
H         72.80264        46.11184         0.22461
H         73.04546        47.99720         0.70378
H         73.14372        50.39325         0.41861
H         73.11476        52.34259         0.24286
H         73.16417        54.77786         0.26553
H         73.17631        56.68643         0.29659
H         73.18533        59.11521         0.27549
H         73.16451        61.02919         0.45040
H         73.19868        63.44873         0.39509
H         73.01104        65.44915         0.79698
H         72.77520        67.88706         0.93111
H         73.10638        69.54591        -0.46694
H         73.16419        71.96097        -0.91803
H         71.07497        73.28358        -1.13516
