         349
 CSIRO Nanostructure Databank - Neutral Graphene Oxide Data Set
C          1.37261         1.84825         0.54824
C          1.27525         3.21498         0.63455
C          2.62330         1.19170         0.64135
C          2.47470         4.02959         0.86754
C          1.26541         6.32285         0.32280
C          1.27221         7.66435         0.23186
C          2.43488         5.55645         0.85129
C          2.34892         8.46278         0.93397
C          1.29705        10.75237         0.86498
C          1.35308        12.14308         0.81023
C          2.43075         9.96300         0.59744
C          2.53617        12.81442         0.43757
C          1.59241        15.07752         1.08636
C          1.49841        16.41515         0.96188
C          2.61822        14.28291         0.39943
C          2.31364        17.11437        -0.09430
C          2.47111        18.61209         0.07428
C          3.83178         1.91570         0.65471
C          3.78532         3.37386         0.63553
C          5.07708         1.25206         0.68581
C          4.91724         4.10938         0.33300
C          3.73172         6.25147         0.67502
C          3.69323         7.73135         0.82839
C          4.87954         5.56422         0.32606
C          4.93912         8.48496         0.56529
C          3.61611        10.62943         0.22330
C          3.65248        12.03602         0.06423
C          4.88329         9.86250        -0.08535
C          4.90247        12.71907        -0.40039
C          3.67666        14.92830        -0.19061
C          3.64901        16.40448        -0.31052
C          4.93544        14.22910        -0.66470
C          4.94875        17.14093        -0.22271
C          3.64624        19.24373         0.20466
C          4.91003        18.47866         0.51452
C          6.29100         1.93734         0.39943
C          6.16962         3.36805        -0.01051
C          7.51534         1.29510         0.34928
C          7.44645         4.11049        -0.31011
C          6.10713         6.32193        -0.04762
C          6.18612         7.74561         0.27982
C          7.42701         5.60822        -0.28283
C          7.38418         8.41579         0.31256
C          6.12186        10.62837         0.39780
C          6.20192        12.02721        -0.11294
C          7.39727         9.87661         0.56784
C          7.45598        12.77058         0.15134
C          6.21530        14.90118        -0.12108
C          6.29522        16.41205        -0.31925
C          7.38948        14.22655         0.14150
C          7.35093        17.04462         0.59336
C          6.20214        19.23093         0.33776
C          7.39557        18.55199         0.41081
C          8.72330         1.92083        -0.31699
C          8.74508         3.42234        -0.12873
C         10.04753         1.26403        -0.02412
C          9.89373         4.13345         0.05834
C          8.66700         6.32872         0.05943
C          8.63152         7.70739         0.24050
C          9.90219         5.58956         0.12715
C          9.86465         8.45988         0.53376
C          8.66351        10.62561         0.43953
C          8.61840        12.07590         0.40889
C          9.85583         9.93767         0.39463
C          9.90320        12.78255         0.75902
C          8.66263        14.95129         0.32007
C          8.67469        16.35945         0.36235
C          9.88828        14.24924         0.40212
C          9.88516        17.07253         0.41438
C          8.65833        19.21996         0.37712
C          9.88345        18.53720         0.43153
C         11.21579         1.97176         0.09473
C         11.20243         3.45303         0.39252
C         12.50147         1.34074         0.04304
C         12.39138         4.19468        -0.18299
C         11.11954         6.27034         0.14280
C         11.16688         7.70961         0.44340
C         12.34337         5.58784        -0.19779
C         12.47584         8.46210         0.27127
C         11.11372        10.63230         0.17844
C         11.12961        12.05770         0.24669
C         12.30167         9.92831        -0.07201
C         12.33156        12.75648         0.10537
C         11.10733        14.94862         0.43025
C         11.10496        16.35683         0.44301
C         12.41013        14.18287         0.60783
C         12.36241        17.10440         0.61261
C         11.11367        19.23962         0.46407
C         12.35701        18.57320         0.52840
C         13.67601         2.06578        -0.22483
C         13.61245         3.50531        -0.46519
C         14.92310         1.42729        -0.37010
C         14.71427         4.18765        -0.99891
C         13.46614         6.36375        -0.67605
C         13.47027         7.74867        -0.61919
C         14.56514         5.61929        -1.32000
C         14.63077         8.51006        -1.01186
C         13.48231        10.64405        -0.42667
C         13.49839        12.07434        -0.31634
C         14.63788         9.93567        -0.84366
C         14.72767        12.80083        -0.53364
C         13.61651        14.92711         0.06264
C         13.68275        16.38601         0.30324
C         14.71457        14.24722        -0.38693
C         14.82982        17.20245        -0.09618
C         13.59771        19.21339         0.64013
C         14.85644        18.56262         0.40143
C         16.06594         2.09932        -0.88130
C         15.98140         3.53016        -1.22414
C         17.20582         1.36407        -1.16637
C         17.09813         4.19752        -1.71194
C         15.81179         6.41340        -1.76316
C         15.80583         7.82879        -1.40953
C         17.12473         5.68021        -2.10048
C         17.08673         8.48375        -1.12533
C         15.84971        10.70236        -1.30672
C         15.89965        12.15267        -0.89803
C         17.11119         9.96757        -0.91883
C         17.16893        12.85997        -0.96387
C         15.88346        14.98121        -0.92440
C         15.87717        16.50940        -0.87103
C         17.18234        14.27889        -0.97642
C         17.20586        17.10931        -1.08117
C         16.03563        19.29453         0.72433
C         17.32040        18.92675         0.20080
C         18.37555         1.92851        -1.90533
C         18.36040         3.45872        -1.93800
C         19.60201         1.34661        -1.26003
C         19.65753         4.22207        -1.62375
C         18.37244         6.39706        -1.57763
C         18.34104         7.74748        -1.30573
C         19.61076         5.67317        -1.40876
C         19.57525         8.47821        -0.84040
C         18.39636        10.70326        -1.02211
C         18.40318        12.15455        -0.99682
C         19.54848         9.98408        -1.07547
C         19.65107        12.86412        -0.93921
C         18.42014        14.98814        -1.04252
C         18.39214        16.44135        -1.09476
C         19.64252        14.28725        -1.02659
C         19.63623        17.31273        -1.06691
C         18.53137        18.82185         0.82827
C         19.74977        18.07237         0.31254
C         20.76828         2.05796        -0.96016
C         20.84430         3.49167        -1.15338
C         21.89950         1.40072        -0.41310
C         22.01698         4.19635        -0.83670
C         20.82137         6.33366        -1.10775
C         20.87416         7.83226        -1.34937
C         22.00339         5.62477        -0.82880
C         21.99044         8.50204        -0.57083
C         20.88741        10.67257        -1.04490
C         20.88762        12.16128        -0.74314
C         21.73863         9.77603        -0.18785
C         22.11788        12.87580        -0.53516
C         20.94805        14.95969        -1.40479
C         20.94149        16.49638        -1.26441
C         22.17657        14.28359        -0.78223
C         22.20342        17.19042        -0.88761
C         20.95882        18.98105         0.27698
C         22.14910        18.54096        -0.25772
C         23.15513         2.04838        -0.28207
C         23.26449         3.46682        -0.60984
C         24.22818         1.40921         0.34765
C         24.48757         4.12190        -0.58539
C         23.31081         6.39545        -0.80214
C         23.21899         7.78738        -0.16757
C         24.52283         5.60266        -0.24221
C         24.53351         8.55008         0.05141
C         23.48376        10.89630         0.32915
C         23.35819        12.20264        -0.14753
C         24.63513        10.05150         0.11231
C         24.62052        12.93579        -0.12258
C         23.43095        14.99112        -0.78159
C         23.47424        16.44153        -0.77545
C         24.65201        14.31156        -0.59298
C         24.63958        17.16290        -0.58555
C         23.37639        19.24631        -0.10799
C         24.61859        18.58717        -0.25800
C         25.56989         1.95644         0.26784
C         25.72844         3.37042        -0.36281
C         26.59177         1.55739         1.25268
C         27.03716         4.09442        -0.13091
C         25.81903         6.34950        -0.66216
C         25.81470         7.80462        -0.18087
C         27.08683         5.58178        -0.26149
C         27.02236         8.45712        -0.21060
C         25.83809        10.68040        -0.15658
C         25.93094        12.13497        -0.06324
C         27.07016         9.92349        -0.43445
C         27.21210        12.83067        -0.32294
C         25.94555        14.94281        -0.75555
C         25.95050        16.51624        -0.71786
C         27.20378        14.25087        -0.40432
C         27.15801        17.15316        -0.22724
C         25.82954        19.24591         0.00437
C         27.09252        18.56610         0.08535
C         27.76362         2.22065         1.44440
C         28.21248         3.28762         0.45896
C         28.68505         1.77043         2.47807
C         29.35162         4.20024         0.99705
C         28.24410         6.34859         0.26350
C         28.27057         7.74569         0.05484
C         29.33617         5.67727         0.84740
C         29.47665         8.45648         0.30198
C         28.38695        10.64699        -0.45892
C         28.41331        12.12196        -0.26635
C         29.62876         9.85859        -0.16322
C         29.64514        12.82881        -0.09950
C         28.40267        14.97463        -0.27481
C         28.37572        16.42737        -0.12961
C         29.63140        14.26138        -0.07739
C         29.56647        17.10646         0.20456
C         28.24714        19.24594         0.43453
C         29.53291        18.53192         0.69646
C         29.84869         2.39292         2.76260
C         30.25182         3.65339         2.09891
C         31.08856         4.60619         2.84112
C         30.42009         6.44585         1.35930
C         30.54164         7.82102         0.97741
C         31.26785         5.87171         2.38276
C         31.70299         8.60930         1.35522
C         30.88395        10.62519         0.17839
C         30.86497        12.12191         0.13769
C         31.85440         9.91770         1.03442
C         32.03891        12.84829         0.32015
C         30.85544        14.97540         0.11481
C         30.82946        16.43806         0.17948
C         32.03816        14.25095         0.29651
C         31.99646        17.20927         0.15944
C         30.76209        19.30168         0.29443
C         31.93651        18.63726         0.11174
O          5.00953         9.66132        -1.46201
O          6.57860        10.35327         1.72656
O          5.65502        12.04985        -1.47355
O          6.62301         3.56759        -1.40438
O          2.32378         4.83651         2.11201
O         21.74784        17.13146        -2.31666
O         30.63924         3.59195         0.68660
O         19.20075         3.91867        -3.02509
O         27.51197         4.71186        -1.38617
O         14.77765         6.00865        -2.72206
O         27.72692        10.26017        -1.71678
O         25.33364        12.71272         1.16011
O          6.65127         6.11616        -1.40517
O         17.02544         9.14264         0.27276
O         23.72729         7.98317         1.17766
O         13.22329        16.64887         1.70961
O         10.55899         8.00316         1.75856
O         17.21317        18.49884        -1.14125
O         25.96254         2.17810        -1.13904
O         26.09304        15.75722        -1.95445
O         15.45659        15.77787        -2.08825
O         30.69813        10.01964        -1.15189
O          4.53438         8.27127         1.94916
O         22.36371        10.32131         0.92428
O          4.26502        17.03857        -1.49986
O          6.78109        16.59844        -1.66667
H          6.05709        16.27630        -2.25724
O          8.51600         1.67562        -1.75128
H          7.73912         2.23230        -2.01628
O         21.50231        10.59547        -2.37594
H         20.90256        11.03922        -3.01289
O         25.87006         6.46646        -2.09994
H         26.60591         5.89522        -2.42333
O         18.30763         1.46224        -3.28884
H         18.82112         2.10803        -3.82571
O         10.02115        12.75130         2.21909
H         10.90599        13.13662         2.44119
O          5.01369        14.43118        -2.10212
H          5.44176        13.62072        -2.47088
O         20.97680         8.01778        -2.76863
H         21.86710         7.69151        -3.03576
O         19.53684        18.28575        -2.10370
H         20.39796        18.29243        -2.58658
O          4.79856        18.11973         1.93129
H          4.84548        18.94647         2.45460
O          1.57311        16.94700        -1.33846
H          2.21851        17.09862        -2.06445
O         13.12120         8.47219         1.58386
H         12.39326         8.55610         2.24410
O          6.98918        16.73804         1.96143
H          7.67209        17.11569         2.55274
O         29.62941        18.42761         2.18778
H         30.48947        17.99486         2.38077
O         15.85323        10.68882        -2.77628
H         15.09210        11.22281        -3.08788
O         24.51407         5.53336         1.20501
H         24.24959         6.41823         1.57008
O         20.02075        17.00711         1.27856
H         20.13859        17.41734         2.16107
O         28.75481         2.53257        -0.63904
H         28.85596         3.14972        -1.39654
O          1.96819         8.41187         2.33623
H          2.78827         8.57722         2.85540
O         21.08706        14.67746        -2.83228
H         21.64198        15.40360        -3.20459
O         17.24579         5.73603        -3.54266
H         16.35269         5.54572        -3.90909
O         11.32394         3.56045         1.85165
H         12.18990         3.17665         2.10500
O         12.59546        14.04812         2.06085
H         12.80559        14.95942         2.38984
O         23.48074         6.70156        -2.21840
H         23.76823         5.88817        -2.68550
O         19.59013         8.31100         0.60899
H         18.71249         8.63203         0.93776
H          0.46110         1.24241         0.44674
H          0.29062         3.70202         0.66316
H          2.65753         0.09309         0.64872
H          0.42002         5.75093        -0.09087
H          0.41936         8.19293        -0.22028
H          0.36231        10.26153         1.17111
H          0.45163        12.71929         1.05884
H          0.93588        14.55396         1.79658
H          0.74649        16.98166         1.53020
H          1.55193        19.20268        -0.06697
H          5.09995         0.16110         0.82733
H          3.68312        20.34510         0.23472
H          7.55568         0.21986         0.58501
H          6.18989        20.32693         0.22233
H         10.09750         0.17359        -0.17698
H          8.66623        20.31997         0.32318
H         12.55442         0.24083         0.06463
H         11.09778        20.33976         0.45375
H         14.99755         0.34722        -0.17284
H         13.61804        20.30334         0.78952
H         17.21674         0.28732        -0.94014
H         15.93499        20.14201         1.41922
H         19.59926         0.25916        -1.09157
H         18.59067        19.12646         1.88644
H         21.82189         0.33527        -0.15091
H         20.90780        19.97242         0.75278
H         24.06480         0.46081         0.88060
H         23.35881        20.27846         0.27233
H         26.32293         0.73587         1.93616
H         25.80573        20.31895         0.24609
H         28.39818         0.86889         3.04098
H         28.20282        20.32544         0.64340
H         30.49556         2.00848         3.56568
H         31.61924         4.25621         3.73882
H         31.96877         6.52991         2.91422
H         32.48519         8.12927         1.95904
H         32.72017        10.47165         1.42565
H         32.98966        12.32305         0.48604
H         32.99021        14.77624         0.45175
H         32.97953        16.72761         0.07239
H         30.72481        20.40052         0.28096
H         32.86349        19.19365        -0.08959
