         490
 CSIRO Nanostructure Databank - Neutral Graphene Oxide Data Set
C         37.94232        50.30939         2.55776
C         36.84355        51.06507         2.94275
C         37.80451        53.01376         1.88121
C         36.77721        52.42543         2.60652
C         40.21277        48.71427         1.53558
C         40.17485        50.12109         1.43848
C         39.00268        50.89041         1.82660
C         40.00220        52.86388         0.68574
C         38.93136        52.26389         1.47540
C         39.79232        54.08877         0.01574
C         42.51597        48.67660         0.74178
C         41.33619        48.00804         1.13214
C         42.51364        50.07515         0.67387
C         41.32292        50.79715         0.94514
C         42.32503        52.77788        -0.20864
C         41.24041        52.18133         0.53279
C         41.98394        53.91822        -0.97638
C         40.75459        54.57596        -0.86011
C         45.04419        45.86806         0.67917
C         43.92423        46.55986         0.92102
C         44.97589        48.63715         0.10827
C         43.67361        47.86968         0.19599
C         44.98517        50.07091         0.15027
C         43.78301        50.87783         0.55541
C         44.87032        52.89513        -0.45173
C         43.65522        52.20076        -0.18984
C         44.96035        54.31783        -0.78019
C         43.92754        55.05242        -1.40541
C         45.07149        57.14992        -1.07445
C         43.97785        56.43289        -1.57999
C         47.53652        44.39965         0.05467
C         47.42786        45.72914        -0.23482
C         46.06442        46.40263        -0.31572
C         47.43117        48.56489        -0.06145
C         46.12643        47.90655        -0.11759
C         47.43816        50.07996        -0.04541
C         46.15487        50.79011        -0.07298
C         47.37510        52.92595        -0.29785
C         46.12978        52.21547        -0.25892
C         47.38634        54.33835        -0.26606
C         46.15018        55.04662        -0.47316
C         47.33494        57.18813         0.09982
C         46.15796        56.47093        -0.53141
C         47.40075        58.66506        -0.16806
C         49.90334        44.28734        -0.55308
C         48.80366        43.71312        -0.00615
C         49.85937        45.70637        -1.07446
C         48.62992        46.47261        -0.59746
C         49.82669        48.63369        -0.90128
C         48.62881        47.84164        -0.55329
C         49.86060        50.08851        -0.63130
C         48.66909        50.80102        -0.40684
C         49.86931        52.92019        -0.46683
C         48.63664        52.21357        -0.37720
C         49.87128        54.37326        -0.41371
C         48.63254        55.07384        -0.26565
C         49.85098        57.21802        -0.27968
C         48.63721        56.48449        -0.20435
C         49.85290        58.65034        -0.26290
C         48.57778        59.32834        -0.26883
C         52.41381        41.48428        -0.14704
C         51.20392        42.12507        -0.31727
C         52.40049        44.34734        -0.40790
C         51.18852        43.53709        -0.81899
C         52.39302        45.73988        -0.62972
C         51.17132        46.43337        -0.82308
C         52.38832        48.65152        -0.73774
C         51.15803        47.88400        -1.01255
C         52.34994        50.02883        -0.58265
C         51.10444        50.78130        -0.61713
C         52.35679        52.97352        -0.29457
C         51.08113        52.19568        -0.50964
C         52.33349        54.37806        -0.90595
C         51.07267        55.10462        -0.51215
C         52.34198        57.23118        -0.38041
C         51.09027        56.51214        -0.42131
C         52.33563        58.64723        -0.23725
C         51.09052        59.36489        -0.24085
C         52.34997        61.45780        -0.05498
C         51.14558        60.78228        -0.16108
C         54.94589        40.07630         0.39342
C         54.89166        41.35805        -0.40878
C         53.64138        42.16245        -0.13080
C         54.85989        44.27338        -0.75454
C         53.68544        43.66238         0.02089
C         54.91757        45.77760        -0.55513
C         53.66156        46.49874        -0.64278
C         54.87446        48.65766        -0.73021
C         53.62153        47.89632        -0.69515
C         54.87940        50.09442        -0.45568
C         53.58685        50.78070        -0.12580
C         54.86088        52.96371        -0.51808
C         53.58228        52.18202        -0.75416
C         54.81085        54.39014        -0.50960
C         53.61052        55.10296        -0.54621
C         54.77980        57.23060        -0.00883
C         53.58189        56.52450        -0.35379
C         54.78355        58.60984         0.11154
C         53.56990        59.35312        -0.06455
C         54.85744        61.48998         0.14017
C         53.58456        60.77396         0.01123
C         54.89412        62.90319         0.08725
C         57.32048        39.91596        -0.23242
C         56.09525        39.40374         0.49469
C         57.38326        41.43543        -0.11296
C         56.20101        42.11721        -0.26068
C         57.45639        44.32948        -0.21266
C         56.19532        43.57421        -0.51585
C         57.38524        45.79158         0.01401
C         56.12418        46.43591        -0.30689
C         57.18004        48.67533         0.29196
C         56.15774        47.89887        -0.48025
C         57.30395        50.12319        -0.11802
C         56.07381        50.81718        -0.35313
C         57.32253        52.99802        -0.27680
C         56.06178        52.27257        -0.36930
C         57.33847        54.37586        -0.34788
C         56.09184        55.19332        -0.55512
C         57.29227        57.21574         0.32974
C         56.00129        56.41741         0.38235
C         57.30207        58.56747         0.34720
C         56.01732        59.31277         0.63810
C         57.30824        61.49028         0.44462
C         56.06864        60.78714         0.32159
C         57.29023        62.91418         0.47469
C         56.08289        63.59449         0.29358
C         59.85459        37.10064        -0.05124
C         58.66951        37.75777        -0.12920
C         59.87733        39.94650         0.34627
C         58.57136        39.18342         0.21023
C         59.86525        41.41979         0.20523
C         58.66065        42.12467         0.04412
C         59.84952        44.25796         0.37403
C         58.67369        43.56356         0.14872
C         59.80999        45.70674         0.83835
C         58.52558        46.49533         0.42948
C         59.49802        48.78230         0.91520
C         58.47495        47.93516         0.49172
C         59.70348        50.12894         0.46816
C         58.50929        50.83470         0.05180
C         59.80149        52.92008         0.04259
C         58.55462        52.24938        -0.10202
C         59.84206        54.33773         0.00565
C         58.62834        55.14805        -0.38159
C         59.83197        57.20726         0.33819
C         58.55811        56.40729         0.49231
C         59.83619        58.60098         0.36797
C         58.56651        59.35139         0.04214
C         59.79474        61.48429         0.67964
C         58.55912        60.78562         0.50737
C         59.78706        62.88411         0.80041
C         58.52870        63.70497         0.80019
C         59.92379        65.56662        -0.13955
C         58.73057        64.89582        -0.11188
C         62.42279        35.67268         0.23680
C         62.35258        37.06100         0.07877
C         61.11600        37.79434         0.10744
C         62.36403        39.94703         0.05319
C         61.12993        39.20398         0.15230
C         62.33539        41.38168         0.17445
C         61.12070        42.10629         0.25784
C         62.29383        44.26299         0.01685
C         61.11489        43.55894         0.28387
C         62.24360        45.72125        -0.19436
C         61.10113        46.41621         0.44345
C         62.36854        48.57781         0.40676
C         61.32561        47.69308         0.85637
C         62.23578        49.97657         0.35386
C         60.99298        50.73141         0.37886
C         62.24193        52.89555         0.17176
C         61.03005        52.17429         0.18613
C         62.27731        54.31498         0.23321
C         61.04127        55.03563         0.21127
C         62.27767        57.17630         0.38768
C         61.04715        56.47929         0.31263
C         62.27871        58.58684         0.51025
C         61.06752        59.30767         0.48667
C         62.29212        61.43263         0.67435
C         61.06865        60.75719         0.63994
C         62.36419        62.88348         0.89225
C         61.02459        63.65753         0.94505
C         62.33128        65.75920         0.57611
C         61.08092        65.05475         0.51998
C         62.37950        67.16682         0.55254
C         64.88924        35.67638         0.19100
C         63.64432        34.99294         0.21904
C         64.89034        37.09206         0.12181
C         63.61681        37.78238        -0.30702
C         64.83563        39.97061        -0.16892
C         63.58917        39.26372        -0.04734
C         64.83757        41.36715        -0.23985
C         63.62404        42.08658         0.15893
C         64.79984        44.33058        -0.46953
C         63.60347        43.62372         0.02081
C         64.84812        45.73519        -0.36268
C         63.55969        46.47281        -0.25624
C         64.80165        48.57723         0.20054
C         63.59784        47.90190         0.10123
C         64.78727        50.00219         0.23947
C         63.49258        50.67618        -0.00568
C         64.78451        52.88476         0.20194
C         63.51443        52.18554        -0.02997
C         64.78471        54.30785         0.19307
C         63.51552        55.02763         0.21786
C         64.74248        57.15851         0.16334
C         63.51596        56.43891         0.29369
C         64.78715        58.54903         0.25755
C         63.58460        59.28806         0.79540
C         64.70844        61.45796         0.16740
C         63.54888        60.75824         0.46292
C         64.76068        62.90827         0.20221
C         63.58559        63.61770         0.53040
C         64.82166        65.73933         0.53125
C         63.57693        65.03626         0.57656
C         64.82200        67.16393         0.55828
C         63.59926        67.84432         0.58284
C         67.47334        32.91236        -0.15854
C         66.23419        33.60078        -0.16361
C         67.38125        35.63474         0.56520
C         66.14044        34.93287         0.20451
C         67.35200        37.18046         0.59352
C         66.08351        37.85844         0.22266
C         67.32609        40.01821         0.10065
C         66.07736        39.23904        -0.02163
C         67.36959        41.37350        -0.52090
C         66.05063        42.09309        -0.67899
C         67.30739        44.29829        -0.31495
C         66.03998        43.60922        -0.94731
C         67.36947        45.79475        -0.72014
C         66.05954        46.44600        -0.31013
C         67.29314        48.61202         0.08583
C         66.06962        47.78019         0.37845
C         67.22060        50.00651         0.61324
C         65.96414        50.74471         0.36072
C         67.24355        52.89216         0.48436
C         65.98854        52.17353         0.32981
C         67.26469        54.31895         0.21021
C         66.00366        54.98540         0.06292
C         67.21555        57.14922        -0.25588
C         65.92547        56.41401        -0.38461
C         67.20442        58.57303        -0.29597
C         65.98275        59.25638        -0.04116
C         67.21883        61.45778        -0.49747
C         65.92645        60.71112        -0.23207
C         67.25074        62.97974        -0.46823
C         66.00288        63.62274         0.12070
C         67.34971        65.67926         0.72845
C         66.03742        64.98878         0.39603
C         67.35477        67.13173         0.31397
C         66.12168        67.94011         0.65828
C         67.21053        69.83065        -0.56952
C         66.10895        69.26798        -0.06032
C         70.00282        31.43414         0.20144
C         69.96282        32.84175         0.12255
C         68.68257        33.55788         0.07620
C         69.85854        35.72102         0.29610
C         68.68053        34.98068         0.31184
C         69.83778        37.15643         0.34224
C         68.63334        37.85137         0.37561
C         69.87742        39.94723        -0.35641
C         68.64200        39.31411         0.25554
C         69.85703        41.46603        -0.28389
C         68.65793        42.11663        -0.45398
C         69.88900        44.35304        -0.42469
C         68.60536        43.58016        -0.63932
C         69.80172        45.78922        -0.03867
C         68.62848        46.46269        -0.15449
C         69.84400        48.67314         0.38615
C         68.61365        47.94139        -0.01997
C         69.79370        50.05685         0.69346
C         68.48344        50.74617         0.85514
C         69.63289        52.96818         1.12490
C         68.42314        52.21877         0.78883
C         69.73426        54.41753         0.60764
C         68.49078        55.01378         0.02613
C         69.55921        57.18641        -0.68928
C         68.41365        56.42141        -0.33212
C         69.65399        58.55805        -0.61275
C         68.44637        59.30340        -0.41623
C         69.74492        61.39708        -0.32814
C         68.47945        60.70879        -0.39489
C         69.75401        62.81070        -0.05779
C         68.55869        63.54927         0.04396
C         69.82351        65.65044         0.20168
C         68.58620        64.93259         0.29451
C         69.79429        67.06499         0.04977
C         68.51508        67.75180        -0.03883
C         69.71023        69.94641        -0.07420
C         68.54962        69.14086        -0.63408
C         69.63095        71.33231         0.10939
C         72.41648        31.46707         0.24490
C         71.21532        30.75360         0.26605
C         72.39368        32.86039         0.17510
C         71.18117        33.56398         0.13886
C         72.30827        35.79390         0.65011
C         71.18252        35.06893        -0.04871
C         72.27219        37.13503         0.78624
C         71.10019        37.90421         0.38759
C         72.32091        40.07189         0.25470
C         71.12989        39.27489         0.16917
C         72.31372        41.42969         0.08885
C         71.11074        42.19741        -0.15293
C         72.32890        44.39844        -0.02814
C         71.12714        43.59607        -0.15375
C         72.29382        45.73639         0.18348
C         71.02351        46.43550         0.60225
C         72.21568        48.68651         0.81999
C         71.05173        47.96025         0.51945
C         72.18011        50.06639         1.03682
C         70.96310        50.76581         1.03244
C         72.07959        52.99381         1.71132
C         70.82481        52.15768         1.65258
C         72.13948        54.30257         1.37624
C         71.11913        54.99928         0.60761
C         72.33455        57.24338         0.33466
C         71.44162        56.16651        -0.05860
C         72.10424        58.55520         0.05499
C         71.01307        59.20718        -0.82099
C         72.17141        61.45002        -0.65069
C         70.95370        60.70089        -0.54633
C         72.23967        62.76530        -0.30866
C         71.06738        63.45611         0.33846
C         72.24315        65.70603         0.10407
C         71.06303        64.96063         0.16979
C         72.21581        67.10468         0.06912
C         70.99911        67.80817         0.04384
C         72.05723        70.02871         0.54948
C         70.93868        69.27656         0.14484
C         71.96576        71.40853         0.72690
C         70.75074        72.06286         0.51458
O         47.65114        49.29658         1.19860
O         69.34809        44.07453        -1.77784
O         70.65497        56.46702        -1.18397
O         66.36745        61.02258        -1.62597
O         42.84217        54.37403        -1.98458
O         67.28996        36.38402         1.81760
O         55.83856        48.32266        -1.81994
O         50.40005        48.30381        -2.22514
O         57.10370        43.96007        -1.61838
O         69.39133        54.09087         2.03003
O         68.02049        39.98682         1.39717
O         67.91051        48.52629        -1.22617
O         63.87890        42.95350         1.32991
O         62.71971        46.23810        -1.47133
O         60.45169        48.26029         1.79696
O         67.69961        50.15156         1.99875
O         66.70322        41.39296        -1.81779
O         63.47912        51.39876        -1.28580
O         61.79295        63.33478         2.15179
O         59.07645        39.50890         1.52789
O         43.28657        47.54166        -1.18664
H         42.42131        47.08130        -1.15035
O         54.79564        41.00304        -1.83783
H         54.63695        41.85142        -2.31867
O         52.47384        53.19945         1.14367
H         51.66253        53.66422         1.44190
O         53.56130        50.81007         1.32459
H         53.10379        51.63878         1.61266
O         55.89750        59.23247         2.11574
H         55.17839        59.84529         2.38223
O         71.42542        59.02425        -2.20108
H         71.38272        58.05794        -2.37951
O         71.39085        35.29523        -1.48618
H         70.66430        34.84148        -1.96313
O         58.32099        64.22081         2.16856
H         59.19308        64.52554         2.49930
O         71.21556        63.22611         1.79352
H         71.19089        62.25573         1.93468
O         58.54935        55.92537         1.86443
H         58.37267        56.68589         2.45627
O         67.39715        65.67144         2.20123
H         66.84344        66.43122         2.50886
O         52.29099        54.27689        -2.36677
H         52.32884        55.18804        -2.72740
O         53.49261        51.92429        -2.17177
H         53.18982        52.75197        -2.61837
O         51.31201        43.40736        -2.28060
H         50.89039        44.21259        -2.67868
O         58.85742        55.61593        -1.74830
H         59.07278        54.83613        -2.30174
O         49.76224        45.62971        -2.54475
H         49.87658        46.55863        -2.87051
O         47.12593        57.05092         1.55630
H         47.87397        57.50486         1.99911
O         67.45875        45.90472        -2.15456
H         67.54954        46.86399        -2.35770
O         63.73450        59.26191         2.26586
H         63.65905        58.32600         2.54980
O         63.63923        37.67804        -1.80222
H         62.81431        38.09620        -2.13173
O         45.58289        46.11913        -1.65641
H         44.71603        46.58994        -1.75615
O         67.19559        44.21266         1.11638
H         66.46012        44.78846         1.42094
O         56.60002        48.71421         1.65354
H         57.17267        49.27883         2.21541
O         70.49649        51.87533         3.04493
H         70.10987        52.70096         3.41342
O         57.18374        39.60498        -1.64241
H         56.34192        40.02575        -1.95775
O         69.78923        39.60911        -1.77618
H         70.57749        39.98112        -2.22464
O         65.69058        56.33903        -1.85393
H         65.65912        57.26184        -2.18742
O         70.88954        46.17820         2.04317
H         70.85992        45.20663         2.17349
O         66.15691        47.47424         1.82022
H         66.48032        48.28045         2.28361
O         59.75582        45.62785         2.29088
H         59.87420        46.54470         2.63129
O         53.92895        43.96414         1.43363
H         53.18358        43.60004         1.95567
O         66.26409        68.23898         2.10054
H         67.05195        68.81433         2.20646
O         55.77931        55.94861         1.72903
H         55.72157        56.73978         2.30689
O         56.15692        55.76905        -1.89814
H         56.35077        55.04506        -2.52916
O         66.05003        43.78843        -2.36954
H         66.69928        43.15259        -2.74666
O         68.84915        68.94340        -2.05195
H         69.04304        69.82089        -2.44257
O         54.55037        44.02604        -2.15258
H         55.34675        44.29629        -2.66488
O         58.57296        59.46264        -1.43192
H         58.59992        58.54901        -1.79255
O         67.23974        63.41680        -1.86439
H         66.72002        62.74179        -2.36181
O         44.07177        51.28030         1.95477
H         43.31603        51.82590         2.26151
H         37.98968        49.25055         2.84682
H         36.03164        50.60096         3.51945
H         37.73931        54.08406         1.64270
H         35.91365        53.02740         2.92149
H         39.33035        48.15889         1.88028
H         38.83328        54.61500         0.10421
H         41.31071        46.90878         1.15184
H         40.55848        55.46449        -1.47378
H         45.21953        44.90915         1.18956
H         43.17698        46.17766         1.63276
H         45.07320        58.24471        -1.15582
H         43.15468        56.94882        -2.09012
H         46.65196        43.80534         0.32099
H         46.46677        59.24416        -0.13630
H         48.83126        42.67337         0.34958
H         48.55770        60.42227        -0.37489
H         52.41637        40.38443        -0.08833
H         50.29465        41.51658        -0.41695
H         52.32209        62.55367         0.00735
H         50.21853        61.37026        -0.17322
H         54.04161        39.71841         0.90684
H         53.97295        63.47811        -0.07265
H         56.16230        38.47327         1.07815
H         56.06745        64.69260         0.32450
H         59.87894        36.02314        -0.26612
H         57.75996        37.23204        -0.45316
H         60.01125        66.49512        -0.72406
H         57.89290        65.25709        -0.72680
H         61.50649        35.09078         0.41023
H         61.44297        67.74161         0.55882
H         63.63549        33.89956         0.32676
H         63.58268        68.94187         0.62752
H         67.46032        31.83865        -0.38988
H         65.33248        33.04178        -0.45049
H         67.12536        70.80489        -1.07812
H         65.16115        69.82545        -0.10446
H         69.06751        30.85827         0.22129
H         68.67857        71.85578        -0.05725
H         73.37697        30.93466         0.27923
H         71.22542        29.65663         0.32871
H         73.34602        33.40737         0.13900
H         73.19832        35.23630         0.97548
H         73.13316        37.66350         1.22191
H         73.27579        39.57600         0.48121
H         73.26601        41.96935         0.18310
H         73.30429        43.91212        -0.17997
H         73.24183        46.29250         0.21700
H         73.17536        48.16430         0.93785
H         73.11118        50.58752         1.30039
H         72.94431        52.54373         2.22132
H         73.08751        54.84189         1.53145
H         73.15962        57.00088         1.02435
H         72.82018        59.26797         0.49882
H         73.06260        60.94084        -1.04632
H         73.19932        63.29451        -0.38821
H         73.21978        65.20324         0.11673
H         73.16978        67.64947         0.05262
H         73.01642        69.52891         0.74225
H         72.84966        71.97881         1.04434
H         70.67292        73.14876         0.66171
