         661
 CSIRO Nanostructure Databank - Neutral Graphene Oxide Data Set
C          5.92530        31.73937        -0.26912
C          5.86283        33.07634        -0.11918
C          8.28548        27.43176         0.25596
C          8.26091        28.84641         0.47276
C          7.09747        29.57696         0.12326
C          8.29909        31.66320         0.46820
C          7.11407        30.97035         0.10449
C          8.34005        33.12948         0.13002
C          7.02873        33.84899         0.45822
C          8.31712        35.96941         0.02400
C          7.11371        35.27111        -0.02511
C          8.36129        37.36520        -0.30300
C         10.77492        23.16620        -0.06014
C         10.75469        24.56279         0.11450
C          9.53614        25.31071         0.02259
C         10.66588        27.32752         0.92588
C          9.45757        26.67404         0.35977
C         10.60974        28.77586         1.32010
C          9.40299        29.55590         0.96060
C         10.53266        31.76929         1.64935
C          9.42737        30.97035         0.94256
C         10.63031        33.21337         1.17048
C          9.53998        33.87604         0.65698
C         10.70618        36.07469         0.66971
C          9.53490        35.30427         0.45471
C         10.70281        37.45455         0.34278
C          9.53549        38.11112        -0.18022
C         10.73893        40.28142        -0.36703
C          9.56351        39.53809        -0.41493
C         10.80816        41.68087        -0.59059
C         13.29908        18.91262        -0.45005
C         13.26986        20.32780        -0.21352
C         12.04731        21.02992        -0.23368
C         13.21661        23.14867         0.17024
C         11.99172        22.43308        -0.03398
C         13.18164        24.54461         0.47251
C         11.98763        25.24431         0.42208
C         13.21153        27.38940         1.05432
C         11.98201        26.75418         0.44543
C         13.18556        28.83003         1.26037
C         11.90184        29.51400         1.52770
C         13.16820        31.72602         1.41046
C         11.88884        31.02315         1.67171
C         13.17651        33.20860         1.47334
C         11.86776        33.97611         1.41669
C         13.16623        36.07752         1.01779
C         11.93733        35.40801         1.03589
C         13.19408        37.54502         0.97103
C         11.87932        38.26562         0.59685
C         13.23917        40.32773         0.11472
C         12.03181        39.50949        -0.24443
C         13.26448        41.68876        -0.22703
C         12.02792        42.38988        -0.59435
C         13.30277        44.46992        -1.05010
C         12.08195        43.77221        -0.89768
C         13.38186        45.84934        -1.28580
C         15.74024        14.64046        -0.85261
C         15.74048        16.02385        -0.85675
C         14.52769        16.78047        -0.77061
C         15.76123        18.86396        -0.23416
C         14.48680        18.17015        -0.53901
C         15.77708        20.34859         0.01474
C         14.49183        21.07632        -0.06242
C         15.71767        23.25657        -0.09943
C         14.46175        22.46708         0.04934
C         15.67722        24.76773         0.16486
C         14.45278        25.17193         0.99977
C         15.64586        27.35267         1.45344
C         14.37856        26.67769         1.13098
C         15.64238        28.86905         1.50038
C         14.35663        29.57172         1.33963
C         15.68437        31.74960         1.33479
C         14.34909        31.01682         1.32114
C         15.59895        33.10762         0.65215
C         14.36116        33.89875         0.87348
C         15.63345        36.04808         0.69013
C         14.42253        35.38047         0.87968
C         15.67209        37.50845         0.69069
C         14.44614        38.24364         0.73909
C         15.66351        40.37869         0.51389
C         14.44032        39.66231         0.49001
C         15.71361        41.72878         0.11193
C         14.50166        42.36867        -0.26057
C         15.88244        44.34077        -1.07888
C         14.55084        43.67332        -0.93459
C         15.88815        45.78805        -1.46066
C         14.61727        46.55601        -1.43669
C         15.91903        48.67797        -1.56014
C         14.67719        47.94088        -1.55544
C         15.95241        50.08983        -1.66543
C         18.38286        10.40561        -1.65656
C         18.33057        11.72927        -1.21461
C         16.97974        12.35610        -0.89995
C         18.28949        14.60506        -0.90397
C         16.98064        13.87190        -1.07164
C         18.29698        16.05304        -0.65209
C         17.03766        16.76010        -0.95982
C         18.29824        18.90018        -0.28388
C         17.03708        18.23714        -0.66936
C         18.25838        20.34314        -0.19018
C         17.07170        21.05318        -0.11729
C         18.24577        23.25689         0.28332
C         17.03590        22.53904        -0.14045
C         18.22981        24.61163         0.70717
C         16.96065        25.34271         0.76448
C         18.13751        27.42301         1.41534
C         16.92750        26.65283         1.19238
C         18.13096        28.79951         1.30985
C         16.90330        29.57318         1.18348
C         18.12670        31.60887         0.47419
C         16.87660        30.91603         0.89060
C         18.13270        33.08599         0.16620
C         16.86379        33.86196         0.33232
C         18.10617        36.01406         0.51204
C         16.90533        35.34008         0.53510
C         18.15762        37.51001         0.30158
C         16.87697        38.19961         0.65682
C         18.17901        40.36755         0.73340
C         16.88329        39.66050         1.01934
C         18.18873        41.75541         0.52725
C         16.97647        42.45734         0.11444
C         18.26388        44.54128        -0.26958
C         17.05702        43.76167        -0.38235
C         18.36248        45.84327        -0.75058
C         17.18427        46.52629        -1.34407
C         18.37546        48.69026        -1.31439
C         17.14816        47.99729        -1.35285
C         18.39671        50.07133        -1.59015
C         17.17692        50.78575        -1.70421
C         18.41449        52.93318        -1.62650
C         17.23312        52.23358        -1.74013
C         18.36098        54.42978        -1.38698
C         20.99999         6.36898        -2.76715
C         20.94002         7.74370        -2.59132
C         19.69829         8.42593        -2.36259
C         20.84579        10.57447        -1.83690
C         19.61267         9.76553        -1.98540
C         20.79947        11.80731        -1.03728
C         19.52933        12.44677        -0.92997
C         20.64684        14.49686        -0.16431
C         19.51702        13.84773        -0.60167
C         20.57406        15.89903         0.39388
C         19.42269        16.70051        -0.19649
C         20.73218        18.78916         0.16648
C         19.46729        18.14791        -0.12713
C         20.87188        20.24453        -0.22516
C         19.55648        21.05996        -0.24386
C         20.72275        23.10372         0.74159
C         19.51241        22.53259         0.10529
C         20.68545        24.52556         1.21565
C         19.41411        25.26707         1.10807
C         20.65304        27.42404         1.36241
C         19.39780        26.64749         1.73208
C         20.68909        28.89309         1.61565
C         19.37527        29.59526         1.48358
C         20.63193        31.80590         1.20171
C         19.41867        30.95280         0.86261
C         20.75158        33.04109         0.28701
C         19.45219        33.83539         0.14530
C         20.66477        36.03692         0.76291
C         19.41956        35.32561         0.33863
C         20.61253        37.49870         0.91703
C         19.39696        38.20455         0.83222
C         20.62255        40.36782         0.95602
C         19.39583        39.63892         0.87590
C         20.61280        41.78783         0.84704
C         19.42059        42.47307         0.61430
C         20.70053        44.60378         0.38784
C         19.35466        43.99523         0.62856
C         20.87231        45.84746        -0.42272
C         19.58094        46.60909        -0.66484
C         20.82535        48.74447        -0.93735
C         19.59980        47.96400        -0.98875
C         20.88223        50.05078        -1.34103
C         19.68976        50.76110        -1.93746
C         20.88172        52.96680        -1.59581
C         19.68573        52.25583        -1.64075
C         20.92180        54.40807        -1.60670
C         19.68353        55.15395        -1.52547
C         20.91786        57.28792        -1.52637
C         19.70140        56.52600        -1.41780
C         20.95038        58.64439        -1.33803
C         23.46900         3.53470        -2.98475
C         22.25722         4.21943        -2.96640
C         23.48191         6.29305        -2.68199
C         22.23822         5.62577        -2.82075
C         23.49471         7.75947        -2.54363
C         22.20906         8.51423        -2.55046
C         23.32928        10.47796        -1.28956
C         22.18876         9.92494        -2.03652
C         23.23360        11.69369        -0.63058
C         21.97241        12.38897        -0.54188
C         23.11399        14.45155         0.55100
C         21.86556        13.71572         0.10805
C         23.11745        15.93982         0.57114
C         21.91336        16.62615         0.44101
C         23.06989        18.75423         1.10362
C         21.87752        18.07084         0.47195
C         23.10946        20.25440         0.91025
C         22.02629        20.93854         0.47853
C         23.24162        23.15970         0.88726
C         22.02965        22.43221         0.45278
C         23.18263        24.58903         1.24719
C         21.97728        25.24548         1.29922
C         23.22959        27.44473         1.36641
C         21.95822        26.70999         1.21751
C         23.18539        28.89352         1.29964
C         21.95099        29.61096         1.30047
C         23.12884        31.72380         0.96737
C         21.92362        31.00171         1.13749
C         23.10190        33.18249         0.95060
C         21.93096        33.88470         0.76220
C         23.07825        36.06443         1.43217
C         21.83937        35.32520         0.92959
C         23.09042        37.49615         0.92515
C         21.82513        38.23579         1.03776
C         23.10741        40.35405         1.21769
C         21.86704        39.64832         1.06468
C         23.01079        41.79591         1.65368
C         21.94877        42.50327         0.78533
C         23.21156        44.64578         0.91051
C         21.84886        44.00860         1.14426
C         23.26867        46.02837         0.45762
C         21.98362        46.71665         0.15061
C         23.31439        48.80805        -0.45716
C         22.01176        48.14081        -0.28851
C         23.39091        50.11124        -0.88251
C         22.17505        50.76356        -1.40950
C         23.41695        52.99774        -1.27908
C         22.18189        52.25065        -1.61710
C         23.38923        54.41739        -1.45297
C         22.15162        55.09248        -1.67933
C         23.45160        57.30666        -1.88474
C         22.12311        56.55873        -2.07439
C         23.41264        58.75973        -1.63180
C         22.17616        59.41583        -1.42043
C         23.36518        61.53618        -1.24422
C         22.16722        60.81178        -1.23397
C         24.68928         4.21788        -2.88188
C         26.02972         6.37153        -2.78758
C         24.71094         5.61210        -2.72866
C         25.99584         7.76018        -2.16597
C         24.67318         8.32901        -1.82595
C         25.83849        10.43397        -1.00750
C         24.58246         9.68806        -1.20557
C         25.78420        11.71903        -0.43541
C         24.45989        12.28320        -0.02144
C         25.71245        14.51152         0.25452
C         24.42483        13.71018         0.47547
C         25.65367        15.94314         0.76245
C         24.40294        16.63155         0.75019
C         25.60804        18.74569         1.03230
C         24.39915        18.04522         0.89851
C         25.61433        20.25638         0.88311
C         24.35237        20.93059         1.45793
C         25.65471        23.11004         1.19975
C         24.45222        22.41020         1.18835
C         25.65087        24.56598         1.21257
C         24.44309        25.28960         1.32128
C         25.70527        27.44149         1.57067
C         24.42036        26.72618         1.42919
C         25.68264        28.92440         1.35126
C         24.39000        29.62362         1.15520
C         25.61119        31.73704         0.67237
C         24.35312        31.01616         0.97328
C         25.63191        33.22125         0.84833
C         24.36488        33.87074         1.40670
C         25.62197        36.06448         1.54143
C         24.36805        35.35043         0.98978
C         25.59199        37.53220         1.38214
C         24.39130        38.24715         0.86816
C         25.57918        40.39185         1.33025
C         24.36906        39.71534         1.13082
C         25.65077        41.82068         1.61705
C         24.34114        42.56619         1.67697
C         25.68547        44.71166         1.35174
C         24.35768        43.97762         1.24238
C         25.75752        45.88634         0.37790
C         24.46506        46.67008         0.31784
C         25.84063        48.79541        -0.19791
C         24.53556        48.03011        -0.24566
C         25.79736        50.25531        -0.36482
C         24.63084        50.86181        -0.79922
C         25.77830        53.05468        -0.58853
C         24.59420        52.30875        -0.94193
C         25.61105        54.46821        -0.53461
C         24.59002        55.15283        -1.17156
C         25.99843        57.39692        -1.32888
C         24.73833        56.58801        -1.52388
C         25.88848        58.77710        -1.50007
C         24.63396        59.47433        -1.52893
C         24.58623        60.88327        -1.37248
C         27.11631         8.49534        -1.93385
C         28.24333        10.60686        -1.22790
C         27.07172         9.84307        -1.37715
C         28.20413        11.88051        -0.63481
C         26.97724        12.41398        -0.17517
C         28.24461        14.45396         0.71127
C         26.93279        13.65286         0.70450
C         28.18547        15.93998         0.92928
C         26.86349        16.64701         0.97154
C         28.09735        18.83154         1.06654
C         26.84731        18.06220         1.09877
C         28.11216        20.18917         0.98150
C         26.88613        20.92852         1.44261
C         28.08264        23.08608         0.81896
C         26.90124        22.40268         1.13212
C         28.05670        24.52791         0.75552
C         26.91050        25.23521         1.07828
C         27.97154        27.38443         0.37329
C         27.04301        26.70690         1.40314
C         28.05427        28.87845         0.56896
C         26.94398        29.56946         0.90983
C         28.18887        31.75717         0.78934
C         26.91401        31.02584         0.66534
C         28.20949        33.14311         1.00039
C         26.94398        33.91636         1.04210
C         28.29665        35.99027         1.48529
C         26.96988        35.32226         1.58671
C         28.47536        37.32696         1.85959
C         26.61908        38.32405         1.78546
C         28.18629        40.32361         1.35159
C         26.85643        39.62790         1.09353
C         28.17369        41.73382         1.26090
C         26.94345        42.49867         1.32094
C         28.18068        44.60104         1.03703
C         26.95187        43.88190         1.18284
C         28.18535        46.04987         0.96140
C         26.98525        46.71101         0.68673
C         28.15824        48.97803         0.93180
C         26.94511        48.17671         0.59730
C         28.19375        50.42693         0.51589
C         27.12710        50.96548        -0.43124
C         28.33279        53.16070        -0.50494
C         27.04868        52.47517        -0.38550
C         28.48093        54.52637        -1.00085
C         27.53634        55.51981        -0.77641
C         27.30455        56.80298        -1.32739
C         29.42112        12.67187        -0.52903
C         30.77671        14.63915         0.13105
C         29.45886        13.89056         0.06452
C         30.66906        16.11369         0.49270
C         29.42221        16.72291         0.71077
C         30.64061        18.89967         1.10987
C         29.38536        18.09957         1.32127
C         30.62994        20.23598         0.82060
C         29.32818        20.91220         0.45500
C         30.55348        23.11196         0.51980
C         29.33538        22.40499         0.65953
C         30.56277        24.52517         0.34118
C         29.24166        25.20873         0.11386
C         30.47588        27.40096        -0.24093
C         29.29835        26.68079         0.35216
C         30.53906        28.82176         0.32585
C         29.25990        29.60631        -0.00089
C         30.60592        31.66651         0.44069
C         29.37837        31.02933         0.50045
C         30.73348        33.11610         0.84575
C         29.41956        33.85883         0.92047
C         30.68381        35.97178         0.77943
C         29.44252        35.26525         1.00296
C         30.75538        37.41996         1.09559
C         29.52869        38.16923         1.40952
C         30.63793        40.31934         0.87699
C         29.43386        39.58820         1.27463
C         30.59377        41.74767         0.81831
C         29.41582        42.45000         1.07584
C         30.62713        44.63090         0.98506
C         29.41472        43.90562         1.03256
C         30.63427        46.05025         1.00738
C         29.42827        46.76802         1.04369
C         30.70392        48.94782         0.80665
C         29.45655        48.26602         1.34406
C         30.72468        50.28823         0.47530
C         29.52090        51.12778         0.37668
C         29.50577        52.41187        -0.34134
C         31.86667        16.80497         0.70068
C         33.14200        18.91449         1.00718
C         31.91756        18.14528         1.37821
C         33.12154        20.30104         0.82370
C         31.85529        21.00344         0.73758
C         33.04211        23.15297         0.49827
C         31.82324        22.40198         0.56831
C         33.02550        24.55369         0.28854
C         31.76700        25.24792         0.18310
C         32.97804        27.37237        -0.22163
C         31.78306        26.66846        -0.03440
C         32.99655        28.84289        -0.31356
C         31.80731        29.55946        -0.04134
C         33.02069        31.69524        -0.14723
C         31.80294        30.96530         0.06022
C         33.01955        33.11535        -0.14548
C         31.69356        33.84073        -0.08419
C         32.98942        35.99773        -0.13762
C         31.80030        35.30997         0.27494
C         32.93943        37.47733        -0.22484
C         31.94141        38.20042         0.60747
C         33.04083        40.37043         0.14280
C         31.82348        39.65912         0.47885
C         33.08197        41.77368         0.28159
C         31.78674        42.53874         0.31831
C         33.14761        44.62567         0.64208
C         31.92020        43.85353         1.08165
C         33.10370        46.03700         0.66194
C         31.90647        46.76823         0.85716
C         31.89533        48.16508         0.72797
C         34.32450        21.05922         0.75861
C         35.49663        23.22710         0.69580
C         34.30789        22.46476         0.64066
C         35.50356        24.62068         0.43085
C         34.24654        25.28792         0.11936
C         35.46742        27.34039        -0.61305
C         34.21922        26.65592        -0.22079
C         35.40606        28.81213        -1.11569
C         34.20779        29.55595        -0.53207
C         35.44909        31.72158        -0.52938
C         34.22254        30.96764        -0.41848
C         35.43496        33.14062        -0.51221
C         34.19162        33.84760        -0.37908
C         35.37391        35.99801        -0.90502
C         34.14303        35.29062        -0.48347
C         35.40514        37.52033        -0.96149
C         34.15642        38.27051        -0.63334
C         35.48929        40.34781        -0.24386
C         34.23448        39.67462        -0.20073
C         35.50859        41.74757        -0.01793
C         34.31410        42.47556         0.19530
C         34.30052        43.91507         0.31248
C         36.67126        25.38700         0.55133
C         37.98473        27.50759        -0.03489
C         36.75839        26.68334        -0.09550
C         37.93625        28.81579        -0.35680
C         36.76050        29.55598        -0.94943
C         37.88346        31.75016        -0.66015
C         36.68752        31.02954        -0.61076
C         37.89072        33.16630        -0.72551
C         36.65981        33.87747        -0.65151
C         37.87373        36.01579        -0.91348
C         36.65731        35.28795        -0.78470
C         37.87861        37.44304        -0.86714
C         36.69963        38.21138        -0.75310
C         36.69116        39.59180        -0.48034
C         38.85174        29.57936        -1.28174
C         40.29269        31.75354        -1.34825
C         39.17432        30.97061        -0.71075
C         40.28359        33.10406        -1.37225
C         39.10324        33.88378        -1.01050
C         39.09009        35.27214        -1.05518
O         28.46648        14.99265         2.05713
O         25.06719        42.29405         2.93280
O         19.54957        34.72196        -1.01731
O         12.35128        38.26317         1.95707
O         27.54285        37.89664         2.73392
O         19.66354        22.08104        -1.29511
O         11.96422        30.16223         2.85475
O         12.59598        33.73148         2.68744
O         26.27973        33.87645        -0.28251
O         26.17877        35.54697         2.80348
O         14.63704        33.23978        -0.42992
O         21.14101        27.15480         0.02317
O         33.04754        38.02331        -1.57243
O         15.81236        19.36433         1.13638
O         36.28474        26.55801        -1.52639
O         24.36225        56.85186        -2.94295
O         20.56867        23.35872         2.16648
O         25.75053        28.35369         2.72433
O         15.34157        43.53451        -2.18330
O         16.36552        23.02745        -1.40588
O         28.63740        51.25324         1.59609
O         22.23299        13.83248         1.55514
O         15.67992        28.07247         2.73540
O         17.05767        17.74429        -2.04802
O         21.62689        10.81308        -3.06467
O         37.67492        29.64165        -2.19437
O         22.84032        23.01896        -0.59963
O         26.55317        55.18710         0.18620
O         24.43866         8.46134        -0.37505
O         17.74220        14.29444        -2.24926
O         23.05699         8.44414        -3.76417
O         26.19942        31.31446        -0.61312
O         10.49179        27.69212         2.32019
O         24.43159        12.60199         1.40538
O         35.29307        36.74462        -2.18354
O         20.00718        29.43504         2.80160
O         22.38543        51.34441        -2.77323
O         31.89399        37.73968         1.99924
O         17.33191        33.43250        -0.99682
O         16.72355        45.99728        -2.64974
O         27.09924        48.81524         1.94031
O         21.64624        47.74351         1.11491
O         23.75692        37.79055        -0.35145
O         18.95457        30.88358        -0.50649
O         25.47780        48.05517        -1.41044
O         15.97566        32.08184         2.73032
H         15.86269        31.27117         3.27234
O         32.10936        43.51162         2.48237
H         32.18014        44.34592         2.99172
O         25.93986        45.32225        -0.95259
H         25.88871        46.07576        -1.58718
O         19.45850        26.46298         3.17501
H         18.63865        26.00856         3.46212
O         30.25636        27.44983        -1.68039
H         30.09715        26.51741        -1.96799
O         29.54783        48.35699         2.79037
H         28.62314        48.39453         3.12935
O         15.50208        25.42270        -1.11392
H         16.01655        24.89211        -1.76915
O         25.71844        45.24007         2.70137
H         25.62513        44.47442         3.31127
O         27.73715        26.74963         2.66974
H         27.31872        27.46603         3.20465
O         27.65949        50.59005        -1.75848
H         26.96667        50.77943        -2.42739
O         28.97521        25.04143        -1.35346
H         28.13311        25.53825        -1.51960
O         25.57694        20.51360        -0.53888
H         26.44246        20.25699        -0.92392
O         21.07787        32.53715        -1.01994
H         20.84073        33.23355        -1.67183
O         22.52208        41.77268         3.02920
H         23.31834        41.61952         3.59225
O         24.29519        35.41628        -0.43740
H         25.10218        35.01666        -0.83841
O         19.81265        50.65439        -3.39479
H         20.73719        50.93286        -3.61278
O         17.36975        55.04128        -2.22232
H         17.67642        54.98395        -3.15055
O         39.60745        30.70659         0.66283
H         39.83709        31.56671         1.07357
O         22.39787        42.46552        -0.58795
H         22.35808        41.53756        -0.90284
O         20.43763        32.26952         2.55690
H         20.41795        31.47278         3.13792
O         18.92689        44.37742         1.98498
H         19.74052        44.33924         2.55268
O         23.01414        36.13372         2.86884
H         23.14847        35.21954         3.21694
O          8.44813        33.19273        -1.32637
H          9.24609        32.69435        -1.60004
O         26.93837        20.81270         2.88900
H         26.02073        20.94499         3.24080
O         18.27718        37.65732        -1.16990
H         18.73485        36.85984        -1.51899
O         10.08658        31.88175         3.02113
H         10.50932        31.14523         3.52390
O         21.29518        20.15043        -1.61547
H         21.10137        21.02239        -2.03388
O         26.40949         6.48473        -4.17429
H         25.68869         6.94811        -4.64990
O         20.22047        15.71844         1.81256
H         20.84927        15.03638         2.16056
O         31.49951        42.89927        -1.06858
H         31.49088        42.07671        -1.60183
O         12.31105        38.97922        -1.58748
H         12.40308        39.74135        -2.19822
O         21.88592        56.53992        -3.51882
H         22.76576        56.39187        -3.93772
O         24.31011        20.78831         2.90804
H         23.82297        19.94926         3.11713
O         21.39009        45.46437        -1.74603
H         20.76203        44.82740        -2.14853
O         29.19318        20.75444        -1.01534
H         29.86360        21.33528        -1.43646
O         14.68381        24.63498         2.32880
H         13.96768        24.94863         2.92020
O         29.05903        29.67386        -1.43259
H         28.37134        30.35243        -1.60796
O          6.89063        33.87589         1.90462
H          6.05629        34.33781         2.12707
O         25.86960        14.65050        -1.19264
H         25.23659        15.32617        -1.51590
O         22.81559        18.58822         2.56092
H         22.71443        17.62683         2.73745
O         16.78577        39.68305         2.50164
H         15.89575        39.34459         2.74130
O         26.73158        13.18362         2.04333
H         27.20731        13.79894         2.64911
O         27.37681        27.22216        -0.96497
H         27.92320        27.78847        -1.56509
O         29.31125        17.79570         2.75612
H         30.23057        17.55045         3.04409
O         24.36092        33.70863         2.84818
H         25.10848        34.24951         3.21735
O         31.50287        14.48009        -1.09370
H         30.97848        14.87411        -1.82037
O         31.99300        17.87873         2.85959
H         32.15819        18.74227         3.29703
O         15.95325        11.79027        -1.71870
H         16.11337        12.08202        -2.64041
O         31.32950        33.14483         2.17598
H         30.74872        32.63842         2.78125
O         21.53553        44.15678         2.55950
H         21.89691        43.36824         3.04786
O         30.53880        28.70174         1.77449
H         31.26107        28.09087         2.03221
O         31.12414        33.78239        -1.42058
H         31.74709        34.21835        -2.03943
O         12.02823        27.16325        -0.96594
H         12.80308        26.72606        -1.38142
O         35.12482        28.72671        -2.52513
H         35.80300        28.12841        -2.91088
O         26.91619        39.28422        -0.33863
H         26.89301        40.11955        -0.85199
H          5.05521        31.17977        -0.64588
H          4.93775        33.62149        -0.36484
H          7.37031        26.95224        -0.12369
H          6.19328        29.03307        -0.18768
H          6.19499        35.79771        -0.32961
H          7.43205        37.85940        -0.62357
H          9.83020        22.63138        -0.23876
H          8.62331        24.78842        -0.30199
H          8.60870        40.04670        -0.61848
H          9.87766        42.22789        -0.80801
H         12.33952        18.39913        -0.61440
H         11.11283        20.47619        -0.40827
H         11.13724        44.31510        -1.05489
H         12.44735        46.43013        -1.32953
H         14.79868        14.08748        -0.71872
H         13.57509        16.23601        -0.86025
H         13.73793        48.51356        -1.59790
H         15.00907        50.64902        -1.75394
H         17.43974         9.85414        -1.78706
H         16.71454        12.11077         0.16563
H         16.28601        52.79387        -1.75655
H         18.00403        54.58067        -0.32701
H         20.05915         5.79869        -2.81232
H         18.77030         7.83685        -2.42820
H         18.75752        57.06351        -1.23973
H         20.02530        59.17708        -1.06800
H         23.47235         2.44183        -3.10117
H         21.31026         3.67059        -3.06994
H         23.34048        62.62751        -1.11750
H         21.20981        61.33176        -1.08843
H         25.63506         3.66050        -2.93859
H         26.83191         5.76730        -2.29133
H         26.80736        59.38256        -1.46911
H         25.52610        61.45173        -1.32751
H         28.10444         8.08139        -2.18650
H         29.20854        10.19403        -1.55631
H         29.39512        54.76028        -1.56700
H         28.13640        57.38541        -1.75264
H         30.33942        12.27048        -0.98413
H         31.40271        14.15196         0.92721
H         31.67085        50.72491         0.11746
H         30.47231        52.86966        -0.60323
H         32.81510        16.30810         0.44590
H         34.11001        18.39262         1.05259
H         34.02459        46.59701         0.43393
H         32.83878        48.67888         0.48554
H         35.28920        20.53809         0.84857
H         36.45177        22.71775         0.89180
H         36.46798        42.28425        -0.05436
H         35.22997        44.46577         0.09896
H         37.56957        24.95925         1.01999
H         38.95369        26.99585         0.07458
H         38.85053        37.95829        -0.83063
H         37.65461        40.11859        -0.40551
H         39.71796        29.04150        -1.73097
H         41.19256        31.20226        -1.66209
H         41.15998        33.65356        -1.74930
H         40.02370        35.81812        -1.25860
