         651
 CSIRO Nanostructure Databank - Neutral Graphene Oxide Data Set
C          5.80529        31.75244         0.35684
C          5.81919        33.10937         0.19113
C          8.24641        27.47879         0.99530
C          8.25508        28.87619         0.85754
C          7.03169        29.61440         0.68977
C          8.27128        31.71168         0.41773
C          7.02428        30.98981         0.49236
C          8.27068        33.08816         0.22560
C          7.05639        33.85128         0.13237
C          8.29168        36.00042        -0.12172
C          7.08111        35.24302        -0.04346
C          8.34660        37.35237        -0.43635
C         10.69303        23.18727         1.32057
C         10.68832        24.59253         1.36943
C          9.47397        25.33252         1.24214
C         10.68389        27.46497         1.28174
C          9.45160        26.74396         1.17673
C         10.72402        28.85555         1.06160
C          9.50688        29.57640         0.84312
C         10.74281        31.63666         0.36109
C          9.52927        30.98924         0.57307
C         10.78468        33.03407        -0.21118
C          9.56318        33.80301         0.24083
C         10.84069        35.95079        -0.21823
C          9.56487        35.28655         0.10978
C         10.83151        37.32139        -0.46018
C          9.59725        38.06222        -0.57587
C         10.83822        40.17806        -1.09436
C          9.62955        39.43047        -0.87042
C         10.83317        41.52369        -1.37197
C         13.02085        18.87392         0.85147
C         13.05926        20.21507         1.54964
C         11.86257        21.04671         1.40909
C         13.13042        23.14964         1.72961
C         11.89340        22.44798         1.50586
C         13.15916        24.56291         1.67362
C         11.93550        25.27437         1.55125
C         13.24883        27.47811         1.58408
C         11.90670        26.73551         1.64277
C         13.22092        28.86364         1.07052
C         12.00225        29.51509         0.89157
C         13.30735        31.63858         0.20764
C         11.98173        30.87082         0.32918
C         13.29600        33.11053         0.21770
C         12.07479        33.80442         0.03775
C         13.32246        36.00215         0.08002
C         12.05233        35.20377        -0.07715
C         13.32948        37.19201        -0.87974
C         12.12044        38.03996        -0.55143
C         13.41477        40.05381        -1.41676
C         12.14062        39.48046        -0.92380
C         13.39766        41.49899        -1.73570
C         12.08033        42.26742        -1.65415
C         13.36141        44.38137        -1.24120
C         12.15512        43.69597        -1.33799
C         13.37474        45.78943        -0.97822
C         15.72312        14.74873         0.40480
C         15.67015        16.14220         0.33905
C         14.42270        16.85626         0.53092
C         15.59208        18.99064         0.80128
C         14.37133        18.20831         0.73525
C         15.63605        20.24861         1.36574
C         14.37389        20.88947         1.83951
C         15.67899        23.10906         2.07718
C         14.36046        22.38541         2.04597
C         15.70495        24.55953         1.74469
C         14.43470        25.28784         1.63058
C         15.78991        27.40391         1.48559
C         14.47059        26.65689         1.47269
C         15.71804        28.74444         0.78589
C         14.46781        29.53787         0.82474
C         15.77958        31.62226         0.56480
C         14.52610        30.90098         0.55943
C         15.74318        33.06199         0.50981
C         14.55691        33.79345         0.34566
C         15.78936        35.90566        -0.18031
C         14.60300        35.21365         0.03485
C         15.82461        37.23048        -0.82974
C         14.64146        37.94218        -0.95736
C         15.89414        40.03553        -1.50668
C         14.60635        39.34192        -1.36652
C         15.86615        41.51317        -1.44441
C         14.65251        42.24242        -1.51781
C         15.84245        44.35716        -1.16305
C         14.62894        43.65007        -1.35002
C         15.82726        45.76605        -0.70142
C         14.55683        46.52050        -0.73617
C         15.82621        48.66005        -0.42279
C         14.59464        47.91049        -0.55993
C         15.79323        50.05492        -0.22406
C         18.39786        10.58294         0.37746
C         18.28162        11.99866         0.15444
C         17.05207        12.65052         0.33832
C         18.10289        14.80236        -0.19044
C         16.94361        14.05302         0.18501
C         18.06647        16.23286        -0.14783
C         16.86114        16.89448         0.11365
C         18.10026        18.91273         0.74887
C         16.81033        18.41515         0.11712
C         18.17101        20.20064         1.49567
C         16.89473        20.97563         1.55473
C         18.19421        23.01967         2.12021
C         16.92244        22.31151         1.84500
C         18.14981        24.53764         2.04724
C         16.91021        25.19909         1.61268
C         18.30302        27.30570         1.06433
C         16.96978        26.55936         0.95247
C         18.32261        28.73760         0.80523
C         17.02589        29.45910         0.60716
C         18.26993        31.61004         0.35880
C         16.98852        30.92579         0.62438
C         18.22512        33.07552         0.12572
C         17.02257        33.79697         0.78541
C         18.41866        35.57178        -1.32488
C         16.93921        35.32624         0.57294
C         18.32024        36.95618        -1.57055
C         16.99540        37.74634        -1.71750
C         18.34046        40.07078        -1.47293
C         17.07018        39.30183        -1.58631
C         18.33173        41.56175        -1.27349
C         17.05359        42.26914        -1.33425
C         18.38876        44.39753        -0.99508
C         17.06588        43.67331        -1.23429
C         18.29683        45.89586        -1.35149
C         17.11507        46.53170        -0.64687
C         18.37874        48.69089        -0.27427
C         17.07561        47.98973        -0.54144
C         18.24484        50.17400        -0.65813
C         17.05407        50.83048         0.06360
C         18.16940        53.01746        -0.36744
C         17.01861        52.30895        -0.24915
C         18.11499        54.52358        -0.53234
C         20.98334         6.41312         0.51418
C         20.87859         7.77307         0.13659
C         19.68672         8.47639         0.36903
C         20.81015        10.60622        -0.19799
C         19.58207         9.88048         0.18842
C         20.71875        12.08512        -0.47635
C         19.40616        12.75574        -0.32294
C         20.42383        14.92297        -1.18084
C         19.30675        14.12978        -0.53003
C         20.49203        16.35655        -0.68737
C         19.31898        16.96344        -0.28936
C         20.59955        19.15635         0.08661
C         19.31137        18.39683         0.04492
C         20.69769        20.38376         0.92400
C         19.54630        20.83753         1.82532
C         20.68650        23.05769         1.97450
C         19.50837        22.36235         1.91974
C         20.73743        24.53597         2.15878
C         19.44286        25.30154         2.01362
C         20.78954        27.24789         1.09729
C         19.47275        26.65225         1.40374
C         20.79542        28.74831         0.71395
C         19.50639        29.44528         0.77765
C         20.81572        31.59869         0.53769
C         19.51573        30.94793         0.93888
C         20.81795        33.05296         0.36680
C         19.52261        33.81651         0.10589
C         20.81267        35.77141        -0.70417
C         19.59458        35.04428        -0.70117
C         20.83008        37.04759        -1.36186
C         19.60018        37.50265        -1.85464
C         20.83915        40.14192        -1.61148
C         19.64151        39.61238        -1.99815
C         20.80809        41.58578        -1.26267
C         19.56701        42.24413        -1.84481
C         20.85852        44.52618        -1.69741
C         19.56917        43.76398        -1.72315
C         20.82592        45.98298        -1.41390
C         19.61499        46.64874        -1.18105
C         20.73044        48.88884        -1.19750
C         19.56693        48.04593        -0.96146
C         20.77209        50.28316        -0.69436
C         19.52885        50.95390        -0.49157
C         20.69173        53.10262        -0.38944
C         19.47164        52.34251        -0.38985
C         20.64816        54.50753        -0.30281
C         19.41609        55.22078        -0.19704
C         20.57706        57.27345         0.55647
C         19.39534        56.54927         0.20679
C         20.51828        58.39306         1.38231
C         23.56882         3.72381         0.82988
C         22.31540         4.37959         0.86095
C         23.29012         6.24751        -0.46279
C         22.16899         5.68162         0.36095
C         23.22329         7.71813        -0.69585
C         22.04569         8.44959        -0.45254
C         23.09335        10.59783        -1.23971
C         21.95546         9.84207        -0.69986
C         23.09748        12.09130        -1.25035
C         21.73765        12.74158        -1.39457
C         22.91669        14.97628        -1.58421
C         21.75688        14.22242        -1.12716
C         22.91595        16.46408        -1.39308
C         21.72848        17.10547        -0.77022
C         23.08099        19.12953        -0.26845
C         21.82341        18.41926        -0.30817
C         23.05449        20.55036         0.21282
C         21.87956        21.04918         0.98800
C         23.30180        23.00257         2.00698
C         21.97689        22.31110         1.80339
C         23.35012        24.52676         2.23141
C         22.05539        25.28145         2.08237
C         23.26523        27.37872         1.38184
C         22.07349        26.66902         1.54619
C         23.26946        28.80535         1.05353
C         22.06727        29.48662         0.82700
C         23.28268        31.63636         0.50392
C         22.02773        30.91590         0.60710
C         23.29765        33.01341         0.17696
C         22.06801        33.72977        -0.00236
C         23.28437        35.84373        -0.36833
C         22.02738        35.08241        -0.35170
C         23.29158        37.26277        -0.85320
C         22.07566        37.85648        -1.50388
C         23.31592        40.16370        -1.20616
C         22.10983        39.39743        -1.65909
C         23.33800        41.54099        -1.11527
C         22.08974        42.33793        -1.20659
C         23.32613        44.45682        -1.36567
C         22.14511        43.79347        -1.51013
C         23.39022        45.92011        -1.63798
C         22.08878        46.70560        -1.66161
C         23.30630        48.89582        -1.08990
C         22.10458        48.20370        -1.51955
C         23.27106        50.27012        -0.68500
C         21.98520        50.96768        -0.57869
C         23.16592        53.09683        -0.23143
C         21.96389        52.40113        -0.37102
C         23.20901        54.55371        -0.35748
C         21.89949        55.28965        -0.36717
C         23.14825        57.41293         0.50737
C         21.87076        56.74466         0.07250
C         23.01939        58.64444         1.42626
C         21.67624        59.03663         1.90221
C         22.74885        60.52189         3.53100
C         21.58959        59.98889         2.91816
C         24.71100         4.38094         0.41915
C         25.77776         6.50790        -0.15151
C         24.65233         5.73889        -0.06136
C         25.72130         7.99481        -0.37957
C         24.47368         8.34890        -1.24204
C         25.64304        10.63424        -1.23723
C         24.37995         9.85664        -1.40676
C         25.57442        12.11367        -1.31267
C         24.25135        12.78711        -1.43970
C         25.50741        15.03212        -1.57482
C         24.24595        14.24978        -1.74242
C         25.51666        16.38053        -1.35269
C         24.25595        17.18950        -1.32492
C         25.53426        19.27446        -0.73288
C         24.25381        18.52804        -0.68928
C         25.61457        20.45783         0.17953
C         24.36813        21.26305         0.39232
C         25.75046        22.66205         1.84509
C         24.49978        22.34659         1.38405
C         25.81835        24.74659         2.31958
C         24.59077        25.33272         2.00504
C         25.75380        27.45894         1.63958
C         24.54932        26.73266         1.65486
C         25.77446        28.88253         1.40161
C         24.51411        29.55854         1.09141
C         25.72505        31.74652         0.92987
C         24.49522        30.93583         0.81450
C         25.78002        33.08550         0.32381
C         24.55031        33.73459         0.03283
C         25.77715        35.83683        -0.32434
C         24.55320        35.10346        -0.27981
C         25.75633        37.23391        -0.46044
C         24.61768        37.95282        -1.12769
C         25.64036        40.16495        -0.10181
C         24.46536        39.40054        -0.67225
C         25.65955        41.61973        -0.33324
C         24.55183        42.27606        -0.79897
C         25.74793        44.54008        -0.62405
C         24.64874        43.71794        -1.27482
C         25.81783        45.89842        -0.78873
C         24.66797        46.66167        -1.36265
C         25.73688        48.77858        -0.37739
C         24.58583        48.16187        -1.10131
C         25.69459        50.23127        -0.05206
C         24.44393        50.95547        -0.32615
C         25.69043        53.09903         0.25101
C         24.37353        52.34061         0.24942
C         25.68777        54.48066         0.41925
C         24.49014        55.28578         0.09252
C         25.53273        57.22038         1.23940
C         24.39977        56.65300         0.59982
C         25.41837        58.43554         1.99470
C         24.19377        59.04222         2.22836
C         24.01144        60.05339         3.22103
C         26.95549         8.59487        -1.01229
C         28.09623        10.70236        -1.70552
C         26.93737         9.91433        -1.40447
C         28.04912        12.09370        -1.84698
C         26.71684        12.81444        -2.01420
C         27.99669        14.99714        -2.25519
C         26.82629        14.26802        -1.50515
C         27.96043        16.56326        -2.06798
C         26.86266        17.05033        -1.06475
C         28.11371        19.22550        -0.69170
C         26.81882        18.57769        -1.05676
C         28.17758        20.42095         0.00220
C         26.95671        20.99179         0.59189
C         28.18016        23.09280         1.26109
C         27.01321        22.32152         1.22880
C         28.23091        24.52470         1.64047
C         27.07244        25.29792         1.96883
C         28.32862        27.47298         1.96911
C         27.00282        26.79399         2.22399
C         28.28734        28.94890         1.70354
C         26.98713        29.58976         1.43007
C         28.28892        31.71663         0.77661
C         27.04058        31.04953         1.23397
C         28.27401        33.08154         0.39118
C         27.01162        33.77946         0.22699
C         28.25846        35.88288        -0.23702
C         27.02025        35.15903        -0.08481
C         28.23967        37.26412        -0.39253
C         26.97492        37.95618        -0.12449
C         28.19769        40.18197        -0.15742
C         26.96322        39.45554         0.05060
C         28.18701        41.61059         0.13551
C         26.88259        42.34538         0.08547
C         28.23924        44.50161        -0.10928
C         26.91703        43.83391        -0.03655
C         28.19908        45.94853        -0.11260
C         27.03184        46.61266        -0.40376
C         28.27103        48.84265        -0.07568
C         27.05710        48.09091        -0.48652
C         28.18200        50.29322         0.22649
C         26.96605        50.97039         0.17338
C         28.15464        53.08296         0.60950
C         26.92290        52.38356         0.35469
C         28.10350        54.46889         0.88018
C         26.88390        55.17722         0.81471
C         26.77688        56.53108         1.22099
C         29.23506        12.86009        -1.80699
C         30.45736        14.94954        -1.57531
C         29.26984        14.27430        -1.83780
C         30.54410        16.36581        -1.47298
C         29.33756        17.19399        -1.72302
C         30.61572        19.10109        -0.54715
C         29.36368        18.57482        -1.10589
C         30.63718        20.42873        -0.05089
C         29.39988        21.12416         0.23362
C         30.63623        23.14937         0.80649
C         29.40948        22.45588         0.76713
C         30.67391        24.53267         1.12758
C         29.46840        25.20862         1.46386
C         30.76817        27.37523         1.17145
C         29.55740        26.67341         1.64772
C         30.68370        28.79604         0.69118
C         29.54673        29.62386         1.24941
C         30.72879        31.66606         0.48546
C         29.49745        31.00992         0.73091
C         30.72518        33.05407         0.26704
C         29.50445        33.75138         0.14878
C         30.70933        35.87186        -0.28184
C         29.52247        35.18006        -0.16166
C         30.75497        37.30311        -0.62962
C         29.44047        38.03666        -0.73853
C         30.72759        40.24178        -0.40808
C         29.41249        39.56756        -0.79854
C         30.74027        41.61961        -0.26570
C         29.48372        42.36408         0.01863
C         30.72233        44.55594        -0.46261
C         29.43086        43.82183        -0.16469
C         30.72841        45.91823         0.20756
C         29.42957        46.63717         0.35025
C         30.73021        48.84159         0.36035
C         29.41003        48.13033         0.62448
C         30.67302        50.23461         0.37868
C         29.42783        50.97735         0.43750
C         29.38570        52.36387         0.63123
C         31.73103        16.97473        -1.07834
C         33.04659        18.96587        -0.35019
C         31.81969        18.35715        -0.68874
C         33.10086        20.33865         0.00944
C         31.87958        21.06108         0.15005
C         33.16418        23.14412         0.74194
C         31.88711        22.55449         0.20775
C         33.15944        24.50128         1.03298
C         31.92883        25.23284         1.08999
C         33.21638        27.37585         0.85167
C         31.96150        26.67150         1.06056
C         33.20801        28.79035         0.70179
C         31.99339        29.54222         0.71932
C         33.24231        31.65028         0.47814
C         31.99463        30.93350         0.57016
C         33.26446        33.03737         0.14704
C         32.00918        33.83877         0.41820
C         33.21574        35.94526        -0.06481
C         32.00225        35.12130        -0.40234
C         33.19144        37.37173        -0.06720
C         31.99089        38.08273        -0.36539
C         33.18652        40.21431        -0.07626
C         31.96338        39.49504        -0.32026
C         33.19672        41.63342        -0.02928
C         31.97217        42.36378        -0.14393
C         33.18986        44.49858         0.05068
C         31.97184        43.77171        -0.12171
C         33.18324        45.93592         0.09778
C         32.00032        46.69064         0.17043
C         31.94151        48.10132         0.23979
C         34.33365        21.01552         0.22375
C         35.63197        23.03195         0.73799
C         34.39400        22.38901         0.60285
C         35.74930        24.43547         1.12233
C         34.42164        25.23143         1.28174
C         35.69475        27.31680         0.81354
C         34.46357        26.67460         0.98610
C         35.70519        28.74335         0.33168
C         34.44285        29.50463         0.64094
C         35.72806        31.53364         1.11401
C         34.45183        30.89300         0.66282
C         35.68634        33.23233        -0.58656
C         34.42254        33.79384        -0.18675
C         35.66037        35.90633         0.22411
C         34.42579        35.22857         0.02128
C         35.61201        37.34276         0.67815
C         34.39716        38.09215         0.18412
C         35.65639        40.21986         0.29487
C         34.40734        39.49119         0.13561
C         35.64605        41.60707         0.28345
C         34.42611        42.35627         0.14872
C         34.39984        43.76094         0.18235
C         36.94358        25.20810         0.76599
C         38.16742        27.30030         0.19225
C         36.92606        26.58083         0.69284
C         38.20587        28.79202         0.44543
C         36.99688        29.49031         0.58224
C         38.16076        31.63259         0.33040
C         36.99320        30.90550         0.62862
C         38.18546        33.04425        -0.29300
C         36.89422        33.83469        -0.21270
C         38.12451        35.92813         0.40400
C         36.87213        35.20473         0.19862
C         38.12109        37.31391         0.48611
C         36.90855        38.08582         0.45966
C         36.88945        39.46248         0.38763
C         39.40697        29.52033         0.40596
C         40.62683        31.69462         0.22725
C         39.39300        30.92677         0.29492
C         40.62342        33.05870         0.25312
C         39.39343        33.81705         0.18315
C         39.35112        35.16693         0.42409
O         26.21049        20.01776         1.44759
O         23.44661        17.16951        -2.54954
O         18.53704        40.69964        -0.13579
O         18.02497        23.83329         3.32331
O         29.19800        29.62740         2.65525
O         13.65929        20.16181         2.89442
O         22.68903        25.06405         3.40571
O         28.02020        48.57354        -1.49491
O         25.73127        11.47010        -0.00828
O         19.60317        38.50245        -2.83424
O         24.14170        55.08428        -1.34120
O         25.80905        23.50215         2.95199
O         12.55144        27.28593         2.85312
O         16.60317        45.87130         0.58132
O         25.44380        49.16058         0.99996
O         22.71939        22.20001         3.07398
O         25.00561        47.61669        -2.40579
O         21.26107        11.64212         0.79951
O         19.66715        19.29775        -1.07026
O         30.12207        37.53354        -1.96060
O         14.98027        22.78443         3.32433
O         30.04968        45.92388         1.49574
O         20.06797        25.14209         3.32072
O         28.97407        41.94086         1.35006
O         12.66150        31.03493        -0.98377
O         20.11603        33.84811         1.43641
O         22.76155        46.26573        -2.90718
O         26.99555        38.57478         1.25018
O         12.31828        39.02875         0.49390
O         23.25073        58.77372        -0.01146
O         35.73064        32.38177         1.99729
O         26.31367        31.77202         2.28339
O         22.33780        38.48380        -2.80348
O         18.15877        32.17749        -1.01946
O         29.24781        27.12388         3.05111
O         20.05430        44.32425        -2.97963
O         16.30265        28.83900        -0.55640
O         17.69911        36.03964         1.21763
O         23.43760        14.56564        -2.92800
O         24.60534        39.63364         0.76442
O         35.17008        24.78410         2.43584
O          9.70132        34.61956         1.44135
O         20.84693        27.69855        -0.30242
O         21.29392        48.83152        -2.55470
O         22.98113         5.60031        -1.87237
O         26.09757        19.32047        -2.09182
O         21.85045        56.37490        -1.34105
O         23.59157        10.14644        -2.59866
O         23.16089        37.01283         0.56685
O         29.56922        18.34710        -2.59323
O         21.25357        42.07514         0.01708
O         23.55913        21.52169        -0.78859
O         18.07195        18.89351         2.19066
O         26.62362        43.18568         1.25803
O         12.68767        41.88206        -2.96227
O         30.30684        28.66597        -0.73757
H         31.06384        28.25386        -1.20730
O         30.76413        44.81321        -1.89904
H         30.88395        43.95825        -2.36315
O         16.05462        27.73339         2.87168
H         15.95643        26.92241         3.41512
O         17.43581        34.72804        -1.73945
H         16.78025        35.23300        -2.26751
O         17.19961        50.77077         1.51209
H         17.61987        49.90197         1.73779
O         17.96378        46.01067        -2.75613
H         18.72247        45.64040        -3.27011
O         25.52534         8.60407         0.92717
H         25.82989         9.53847         0.90040
O         38.43827        32.76591        -1.70790
H         37.65008        32.28832        -2.04998
O         10.66186        32.88024        -1.65694
H         11.37830        32.25658        -1.92815
O         32.05353        34.24998         1.81208
H         32.18128        33.45345         2.36908
O         27.90760        14.74185        -3.67154
H         27.63722        15.59642        -4.09919
O         19.38931        31.18940         2.37767
H         19.47389        32.16304         2.51857
O         16.77724        26.27074        -0.45332
H         16.73076        27.14054        -0.92653
O         24.92744        37.94775        -2.54288
H         24.09920        38.20702        -3.02487
O         35.66932        28.63627        -1.14953
H         36.43205        28.05918        -1.40852
O         21.29420        12.49619        -2.76042
H         21.90280        12.99772        -3.34932
O         27.53501        17.12280        -3.32073
H         28.09748        17.92283        -3.48652
O         29.12296        48.30062         2.03634
H         29.58181        47.56654         2.50705
O         35.71884        32.10328        -1.35915
H         34.80949        31.78307        -1.53448
O         20.05840        15.01561        -2.60202
H         20.81565        15.41811        -3.07997
O         27.18822        14.09688        -0.12203
H         27.29419        14.98329         0.30225
O         27.30825        16.72358         0.28351
H         26.76880        17.22450         0.93280
O         13.29981        36.55216         1.42726
H         13.09391        35.83089         2.05766
O         35.44758        37.27597         2.14340
H         35.40573        38.19772         2.47640
O         38.16074        27.12958        -1.25075
H         38.91131        27.64156        -1.61872
O         26.31042        12.74016        -3.39127
H         26.90012        13.34586        -3.90847
O         26.76572        26.92707         3.66212
H         27.64556        26.86049         4.10165
O         25.08828        43.57976        -2.67239
H         24.98424        44.45022        -3.11581
O         24.20844         5.17850        -2.46954
H         24.60226         6.04279        -2.78332
O         12.50841        19.10683        -0.47119
H         12.68069        18.31227        -1.01700
O         29.23831        39.92081        -2.22140
H         29.63018        39.17508        -2.73764
O         13.11767        36.69865        -2.23362
H         13.97180        36.71025        -2.71639
O         18.64730        48.58577         1.17557
H         18.43723        47.66626         1.44908
O         17.30339        33.66223         2.20613
H         17.80752        34.47165         2.46590
O         24.75091         7.82118        -2.57183
H         24.17075         8.32868        -3.18787
O         17.91373        50.21241        -2.06785
H         18.65084        49.80629        -2.57250
O         16.49553        37.45135        -3.06837
H         17.13689        37.83120        -3.70834
O         17.77699        54.84477        -1.89656
H         18.51568        54.55663        -2.47161
O         32.10836        34.73180        -1.80865
H         31.84836        35.50490        -2.35434
O         19.52448        41.91013        -3.25411
H         19.90453        42.67600        -3.75002
O         18.73104        44.26618         0.40030
H         17.95228        44.57984         0.92158
O         24.10669        52.12188         1.69909
H         24.64102        51.34760         1.98479
O         19.92161        20.36934         3.14068
H         19.21887        20.62163         3.77564
O         16.75267        18.88118        -1.25732
H         17.63751        18.76140        -1.66754
O         31.86764        22.97948        -1.22726
H         31.11142        22.51904        -1.65170
H          4.84659        31.21492         0.40321
H          4.87175        33.66170         0.10464
H          7.29023        26.93648         0.95686
H          6.07893        29.06500         0.72786
H          6.12464        35.77703        -0.15474
H          7.41120        37.90811        -0.60449
H          9.75165        22.64384         1.15642
H          8.52950        24.77746         1.14529
H          8.67534        39.97178        -0.96233
H          9.88116        42.07550        -1.40655
H         12.31228        18.18755         1.40257
H         10.92425        20.55754         1.11000
H         11.21671        44.22593        -1.11441
H         12.41226        46.32318        -0.97748
H         14.81334        14.17903         0.64546
H         13.48982        16.27079         0.54457
H         13.64821        48.47220        -0.55811
H         14.82020        50.55409        -0.09169
H         17.49676        10.03381         0.69061
H         16.16958        12.07050         0.64636
H         16.05122        52.83433        -0.22092
H         17.28921        54.93872         0.09982
H         20.12774         5.94135         1.02195
H         18.81050         7.92462         0.74241
H         18.42200        57.03395         0.37882
H         19.53423        58.73348         1.73929
H         23.64481         2.70431         1.23352
H         21.45896         3.88689         1.34422
H         22.63080        61.28616         4.31162
H         20.59860        60.31705         3.26336
H         25.69644         3.91129         0.55429
H         26.75451         6.05828         0.09102
H         26.30773        58.79380         2.53450
H         24.89097        60.42942         3.76303
H         27.88316         8.00492        -1.06997
H         29.07876        10.20422        -1.68505
H         29.02315        55.00133         1.16384
H         27.66744        57.03833         1.62075
H         30.18640        12.33055        -1.63289
H         31.35995        14.36147        -1.34703
H         31.60941        50.81296         0.33108
H         30.31911        52.92021         0.80349
H         32.63136        16.35007        -0.97594
H         33.98057        18.39229        -0.43960
H         34.15260        46.45677         0.13395
H         32.88525        48.66549         0.16500
H         35.27516        20.45955         0.10228
H         36.54535        22.49657         0.43538
H         36.59319        42.15709         0.39137
H         35.34347        44.30991         0.32196
H         37.84956        24.65864         0.46825
H         39.09280        26.81049         0.60685
H         39.08243        37.85066         0.51995
H         37.83923        40.01928         0.35335
H         40.36987        28.98673         0.37292
H         41.57944        31.14555         0.26760
H         41.57228        33.60857         0.34731
H         40.28493        35.69900         0.66681
