         349
 CSIRO Nanostructure Databank - Neutral Graphene Oxide Data Set
C          1.02295         3.91347         1.65185
C         -0.16587         4.47894         1.14440
C          1.05300         6.53157         0.38105
C         -0.18573         5.70224         0.51708
C          1.29693         7.16082        -1.03102
C          0.06785         7.72201        -1.67497
C          1.25623         9.77451        -2.25577
C          0.09814         8.91780        -2.30433
C          1.18570        12.07639        -2.17571
C         -0.06056        12.76317        -1.98872
C          1.13269        14.61519        -0.97009
C         -0.08962        13.97172        -1.34715
C          1.16659        15.97034        -0.65979
C         -0.01899        16.72111        -0.29027
C          1.20339        18.88452        -0.47691
C          0.00180        18.05818        -0.10942
C          1.35332        20.20517         0.26882
C          0.18430        20.90510         0.60598
C          1.42197        22.96174         0.90245
C          0.21957        22.25955         0.93523
C          1.44987        24.47522         0.94271
C          0.23092        25.12467         1.54112
C          1.55117        26.98950         2.39738
C          0.28957        26.33335         2.14681
C          1.60556        28.29199         2.93871
C          3.48799         4.00771         1.99012
C          2.27947         4.55195         1.44124
C          3.57078         6.35964         0.31513
C          2.30449         5.76757         0.72469
C          3.58253         7.72198        -0.27782
C          2.44851         8.15438        -0.92483
C          3.63339        10.28280        -1.53821
C          2.41557         9.46139        -1.55172
C          3.62579        11.72835        -1.73047
C          2.37481        12.48966        -1.63957
C          3.62210        14.60858        -1.33677
C          2.41602        13.80786        -0.89863
C          3.62243        16.01494        -1.20357
C          2.42109        16.70338        -0.72699
C          3.75968        18.76640        -0.60767
C          2.45274        18.05956        -0.53862
C          3.85829        20.13891        -0.03006
C          2.60151        20.85729         0.36667
C          3.87401        22.99966         0.65528
C          2.63561        22.26100         0.65076
C          3.95717        24.32074         1.14286
C          2.74587        25.01838         1.50099
C          4.02568        26.88360         2.53323
C          2.75641        26.26827         2.12202
C          4.05004        28.31103         2.89512
C          2.81128        28.95425         3.14647
C          5.91122         4.19210         2.45428
C          4.72406         4.65690         1.86482
C          5.93553         6.81109         1.17816
C          4.82402         5.81356         0.93915
C          6.00992         7.88443         0.10323
C          4.84188         8.42819        -0.41618
C          6.12070        10.32986        -1.51254
C          4.84105         9.68245        -1.14569
C          6.11933        11.80187        -1.93605
C          4.81648        12.46420        -1.75525
C          5.93977        14.65358        -2.10956
C          4.78517        13.91139        -1.72542
C          5.70661        16.02827        -2.37680
C          4.69351        16.76436        -1.74918
C          5.97781        19.11027        -1.77090
C          4.66693        18.29332        -1.75053
C          5.73581        20.54427        -1.52792
C          4.94810        21.03876        -0.52318
C          6.42902        23.07193         0.37091
C          5.14139        22.22230         0.45166
C          6.37499        24.56458         0.49762
C          5.21994        25.02496         1.17562
C          6.46543        27.14384         1.76558
C          5.31601        26.26330         1.95416
C          6.47265        28.43107         2.41308
C          5.28043        28.96611         2.97823
C          8.38323         4.21294         2.58034
C          7.16952         4.83794         2.21377
C          8.44558         6.73364         1.34205
C          7.21562         6.09285         1.52890
C          8.52846         7.90460         0.43324
C          7.32904         8.42488        -0.28762
C          8.63891        10.63002        -0.85748
C          7.42316         9.74633        -1.03330
C          8.57938        12.10536        -1.13674
C          7.45066        12.60690        -2.04482
C          8.32145        14.93970        -1.53684
C          7.27590        14.11121        -1.94266
C          8.12599        16.36448        -1.44908
C          7.41161        17.22818        -2.22965
C          8.59389        19.46932        -2.21554
C          7.26845        18.66756        -1.94332
C          8.64727        20.95501        -1.84297
C          7.59947        21.81479        -2.12579
C          8.71976        23.80414        -1.31876
C          7.63627        23.21929        -1.94364
C          8.58072        25.22338        -0.81549
C          7.47722        25.45519         0.25800
C          8.61167        27.69842         0.70349
C          7.48611        26.74211         0.88035
C          8.76335        28.85052         1.62107
C          7.64642        29.22196         2.39150
C         10.87645         4.15159         2.51079
C          9.63392         4.82926         2.33137
C         10.93006         6.91295         1.74670
C          9.64088         6.14346         1.77353
C         10.91545         8.15465         0.88416
C          9.75345         8.72386         0.46856
C         10.94553        10.93549         0.18458
C          9.60289        10.21307         0.26076
C         10.91978        12.32852        -0.33992
C          9.63993        12.90800        -0.83616
C         10.94484        15.15369        -1.11066
C          9.57617        14.43289        -0.79477
C         11.07603        16.53233        -1.32381
C         10.00282        17.52143        -1.23037
C         11.20993        19.48067        -2.30021
C          9.93032        18.76178        -1.81323
C         11.13415        20.94056        -1.80056
C          9.89462        21.60762        -1.55852
C         11.15259        23.69780        -1.01296
C          9.92372        23.02284        -1.26280
C         11.14986        25.20036        -0.91503
C          9.89481        25.76363        -0.32557
C         11.18634        27.78334         0.45182
C          9.92369        27.14084         0.09378
C         11.17189        29.08991         1.04941
C          9.95621        29.58758         1.61697
C         13.31995         3.94569         2.02048
C         12.08485         4.69518         1.98651
C         13.26093         6.56040         0.81275
C         12.10468         6.01774         1.51257
C         13.35220         8.01486         0.55156
C         12.18878         8.80095         0.59763
C         13.40921        10.74210        -0.25045
C         12.20490        10.14913         0.16912
C         13.39430        12.05384        -1.04292
C         12.16850        12.96456        -0.82355
C         13.48788        14.98674        -1.35872
C         12.16503        14.31683        -1.08499
C         13.55482        16.44465        -0.94993
C         12.39781        17.17962        -1.60617
C         13.75483        19.29210        -1.34772
C         12.50893        18.65131        -1.90556
C         13.99725        20.63387        -1.50301
C         12.25156        21.76574        -1.83528
C         13.66192        23.64220        -0.82537
C         12.37311        23.04034        -1.21709
C         13.59408        25.02817        -0.37240
C         12.42148        25.75051        -0.31965
C         13.61613        27.79955         0.46015
C         12.39724        27.10520         0.22740
C         13.61871        29.19037         0.82157
C         12.38278        29.79772         1.17065
C         15.77041         3.81688         1.80343
C         14.51084         4.45464         1.53953
C         15.83672         6.34559         0.31999
C         14.51314         5.70786         0.74755
C         15.81340         7.85978         0.25503
C         14.59353         8.61409         0.19854
C         15.87612        10.57451        -0.73232
C         14.60021         9.98802        -0.18537
C         15.94365        12.07398        -0.51394
C         14.68734        12.82035        -0.77167
C         16.12756        14.86774        -1.26059
C         14.77019        14.20700        -1.30267
C         16.15715        16.41450        -1.19916
C         14.88588        17.12974        -1.08050
C         16.10077        19.19523        -0.52042
C         14.89912        18.52609        -0.87143
C         16.11452        20.62791        -0.21248
C         14.87975        21.42937        -0.66599
C         16.09141        23.54794        -0.17294
C         14.85503        22.91805        -0.65200
C         16.08106        24.89986         0.09089
C         14.78329        25.60464         0.35785
C         16.04138        27.81083         0.29105
C         14.85217        27.11092         0.29928
C         16.07132        29.24193         0.52118
C         14.84925        29.88291         0.87251
C         18.23804         3.81830         1.94793
C         16.97625         4.46395         1.60639
C         18.21294         6.51770         1.07012
C         17.03060         5.80584         1.07389
C         18.27839         7.83118         0.48503
C         17.06506         8.51526         0.12918
C         18.35568        10.56191        -0.24186
C         17.12441         9.88315        -0.24935
C         18.41177        12.00272        -0.38457
C         17.26544        12.74636        -0.58438
C         18.54963        14.86609        -0.66753
C         17.32244        14.16874        -0.78594
C         18.58806        16.31453        -0.69181
C         17.39325        17.04443        -0.76639
C         18.63146        19.19871        -0.18205
C         17.33725        18.44193        -0.32800
C         18.60826        20.68610        -0.17861
C         17.38454        21.37879        -0.12788
C         18.59580        23.46786         0.13995
C         17.35774        22.79750        -0.05686
C         18.60696        24.89685         0.52619
C         17.30192        25.62415         0.49597
C         18.57800        27.82570        -0.10573
C         17.31293        27.07629         0.12061
C         18.49445        29.35782        -0.26109
C         17.27829        29.94465         0.41138
C         19.39579         4.50447         1.98761
C         20.70489         6.48572         1.14058
C         19.43459         5.99587         1.79364
C         20.74107         7.66823         0.49460
C         19.53348         8.46268         0.28194
C         20.82021        10.50984        -0.42680
C         19.57910         9.82448        -0.09810
C         20.88516        11.85817        -0.50730
C         19.71373        12.67939        -0.02948
C         20.93462        14.85554        -0.16828
C         19.75838        14.15663        -0.35505
C         20.98721        16.27018        -0.28344
C         19.84361        17.00754        -0.50272
C         21.10433        19.25405        -0.31716
C         19.86408        18.51011        -0.74843
C         21.07404        20.58544        -0.09596
C         19.84396        21.37300        -0.12049
C         21.07437        23.54536         0.13194
C         19.83334        22.78249         0.04912
C         21.12372        24.88159         0.33111
C         19.90167        25.68375         0.52822
C         21.09435        27.98857         0.02653
C         19.88742        27.18398         0.27916
C         20.98677        29.37906         0.11056
C         19.76873        30.04134         0.14299
O          6.10181        10.72301        -2.92116
O          8.97585        28.02455        -0.64442
O         13.36995        21.30395        -2.54214
O          4.89959        26.06330         3.35635
O          7.48831        22.47512         0.55590
O         13.39510        11.62310        -2.38537
O         10.98943        12.07402         1.12786
O         19.93588        26.62419         1.64998
O         12.72176        17.62921        -2.95664
O          6.59270        16.70104        -3.24014
O         17.84722        25.17808         1.76764
O         14.10798        14.50486        -2.56939
O          8.50434         9.76583        -2.01527
O         18.03294        18.63084         1.00383
O         15.15447        12.64978         0.60158
O         16.34931        15.65972        -2.45444
O         13.58701         5.70302        -0.37566
O          4.50912         5.45301        -0.41923
O          1.12079        10.93727        -3.00431
O         15.02625        20.96211         0.71973
O         17.91966        27.17240        -1.24765
O          8.89643        17.06456        -0.48291
O          8.19713         7.42130        -0.93616
O          4.31872        18.95712         0.73506
O          6.32851        21.38248        -2.48578
O         18.32492        29.65731        -1.68495
H         17.93382        28.84798        -2.09493
O          1.44535        24.87523        -0.48714
H          1.36345        25.85250        -0.51246
O          7.96086        12.38143        -3.37891
H          7.83489        11.42158        -3.57308
O         19.42352         6.57828         3.14481
H         19.49015         7.55118         3.04152
O          2.59923        13.48622         0.52436
H          2.64847        14.33478         1.01402
O         13.28357        16.40982         0.48972
H         13.47281        17.29428         0.86940
O          0.99339        19.30205        -1.88431
H          1.85722        19.24229        -2.35453
O         19.74455        18.68893        -2.19670
H         20.48454        18.21039        -2.62560
O          5.34884        21.53382         1.72477
H          6.27534        21.20183         1.72275
O          9.33260        14.69149         0.61494
H          9.24774        15.66887         0.72065
O          5.52110         7.50837         2.40994
H          6.24033         8.12238         2.66949
O         15.80499        10.39089        -2.17908
H         14.91806        10.78131        -2.47334
O         11.11594        25.68319        -2.31707
H         10.17402        25.86423        -2.55093
O          6.47759        23.90925        -2.20835
H          5.84372        23.25273        -2.58458
O          8.18183        26.02762        -1.97616
H          7.33622        25.65096        -2.31143
O          1.72545         6.04828        -1.85972
H          2.06329         6.40185        -2.70866
O         11.23498        19.55856        -3.74415
H         11.67943        18.73604        -4.06404
O          0.92723         7.67331         1.28638
H          0.72545         7.32706         2.18110
O          8.58923        19.43613        -3.66707
H          9.51302        19.62573        -3.98249
O         11.10789         7.46117         3.11507
H         10.37501         8.09361         3.27607
O         14.52913        25.33103         1.78837
H         14.64914        24.36835         1.93654
O          8.92579        10.64392         1.48154
H          9.43259        11.43544         1.80361
O          3.94218        18.71065        -2.94927
H          4.46278        18.42021        -3.72938
O         19.78341        12.64269         1.44493
H         19.67334        11.70674         1.71757
O         16.05642         5.93523        -1.06776
H         15.17250         5.95637        -1.50528
H          0.98793         2.95643         2.18978
H         -1.10925         3.92945         1.27899
H         -1.14488         6.14353         0.21091
H         -0.82441         7.08286        -1.73908
H         -0.77849         9.28527        -2.85659
H         -0.97598        12.31592        -2.39737
H         -1.03963        14.51744        -1.26050
H         -0.94304        16.16515        -0.07396
H         -0.92134        18.56144         0.20912
H         -0.79471        20.41338         0.54417
H         -0.72897        22.77090         1.14354
H         -0.75323        24.67561         1.34838
H         -0.63193        26.83233         2.48285
H          0.66029        28.81135         3.15309
H          3.41936         3.09238         2.59675
H          2.81250        29.99669         3.49540
H          5.89384         3.26853         3.05219
H          5.30800        30.00136         3.35028
H          8.35562         3.20950         3.03099
H          7.67483        30.15727         2.96932
H         10.88047         3.13254         2.92441
H         10.00091        30.51726         2.20388
H         13.32686         2.98329         2.55433
H         12.37589        30.82324         1.56798
H         15.76206         2.81428         2.25708
H         14.85943        30.95155         1.13286
H         18.21846         2.73945         2.16461
H         17.27489        31.03068         0.59232
H         20.33596         3.99737         2.25198
H         21.63045         5.91265         1.30146
H         21.69715         8.04878         0.10662
H         21.70660         9.90516        -0.66876
H         21.82410        12.35174        -0.79873
H         21.85735        14.31766         0.09051
H         21.96119        16.76371        -0.15919
H         22.06946        18.72789        -0.27565
H         22.01571        21.09590         0.15033
H         22.02257        23.00564         0.00530
H         22.09597        25.39132         0.38718
H         22.08307        27.51259         0.07936
H         21.91242        29.97034         0.18530
H         19.74518        31.13317         0.26951
