         280
 CSIRO Nanostructure Databank - Neutral Graphene Oxide Data Set
C         30.26464        31.76934         1.37319
C         30.61162        32.98401         1.27548
C         30.49967        36.07690         1.11653
C         30.43175        37.12527         0.48740
C         30.39585        40.22762         0.12492
C         30.37092        41.47454         0.08935
C         32.67142        29.21444         0.82287
C         31.45899        29.50514         1.09294
C         32.93420        31.90468         0.34945
C         30.97048        30.75913         0.68944
C         32.87996        33.27515         0.76346
C         31.68659        33.87827         1.20835
C         32.87804        36.09600         1.24680
C         31.61582        35.30532         1.71864
C         32.84658        37.25958         0.54751
C         31.57100        37.93005        -0.05435
C         32.78157        40.17202        -0.19328
C         31.60139        39.37905         0.42493
C         32.77297        41.58164        -0.27825
C         31.49303        42.32177        -0.09120
C         32.74412        44.30357        -0.25286
C         31.64911        43.71268        -0.05975
C         35.30598        27.50326         0.54246
C         35.16716        28.85954         1.22498
C         33.98026        29.68113         0.80651
C         35.33212        31.77184         0.98151
C         34.06820        31.09527         0.64416
C         35.37811        33.14107         1.16139
C         34.20348        34.02674         0.76799
C         35.44977        36.14002         1.28140
C         34.16036        35.35308         1.59834
C         35.38398        37.53268         0.71936
C         34.06146        38.11703         0.38696
C         35.31963        40.15951        -0.44638
C         34.02510        39.34394        -0.52890
C         35.21736        41.57294        -0.99937
C         33.98359        42.32136        -0.52372
C         35.17658        44.49868        -0.84214
C         34.01469        43.74727        -0.55564
C         35.37655        45.87363        -0.65335
C         37.75639        27.33590         0.37919
C         36.38680        26.91146         0.41297
C         37.77581        28.75530         0.91390
C         36.49980        29.56671         0.91759
C         37.88999        31.63209         1.01458
C         36.54376        30.92996         0.95237
C         37.70047        33.07476         0.42035
C         36.73159        33.84261         1.37816
C         37.99100        36.02629         0.62170
C         36.71634        35.36352         1.11769
C         37.92726        37.55582         0.50713
C         36.57896        38.04054        -0.08483
C         37.80022        40.38090        -0.14262
C         36.51972        39.55920        -0.24983
C         37.72006        41.71370        -0.86017
C         36.52316        42.35192        -0.95971
C         37.76651        44.62696        -1.05648
C         36.46540        43.83196        -1.19300
C         37.76968        46.05837        -0.58881
C         36.43570        46.53607        -0.51107
C         39.90716        24.92875        -1.47100
C         38.95507        25.51198        -0.91194
C         40.17421        27.52096        -0.47524
C         38.82210        26.77141        -0.25972
C         40.35782        28.54325         0.64969
C         39.10892        29.43752         0.87676
C         40.34788        31.71156         0.41485
C         39.03634        30.86137         0.31104
C         40.24870        32.98203        -0.43589
C         38.99479        33.75425        -0.10583
C         40.39046        35.89854        -0.44371
C         39.15318        35.23355         0.08912
C         40.27496        37.35697        -0.72375
C         39.04747        38.12702        -0.34160
C         40.25918        40.26329        -0.63486
C         39.07861        39.61191        -0.40869
C         40.29707        41.66486        -1.10164
C         38.98075        42.42113        -1.35787
C         40.29351        44.62890        -1.11353
C         39.03777        43.84125        -0.72079
C         40.27039        46.11151        -0.80181
C         38.96063        46.70906        -0.35536
C         40.24687        48.68859         0.37100
C         39.22776        48.01874         0.13527
C         42.54250        24.80260        -1.68376
C         41.27564        25.37912        -1.29804
C         42.77178        27.16386        -0.31588
C         41.40922        26.60163        -0.65052
C         42.86835        28.61042         0.07958
C         41.61770        29.38106         0.42267
C         42.84741        31.54760        -0.18475
C         41.60661        30.86949         0.24821
C         42.86921        32.91377        -0.88826
C         41.50047        33.71411        -1.01705
C         42.86112        35.87981        -1.05874
C         41.54772        35.20551        -0.66048
C         42.85564        37.41204        -0.98679
C         41.53857        38.13818        -0.93797
C         42.74770        40.24252        -0.42294
C         41.54077        39.57546        -0.61676
C         42.81699        41.69677        -0.46865
C         41.61950        42.38325        -1.03009
C         42.91939        44.60216        -0.97118
C         41.60611        43.88463        -1.16587
C         42.88369        46.10319        -0.77581
C         41.57142        46.84157        -0.55478
C         42.87105        48.83384         0.11321
C         41.61256        48.06380         0.47793
C         43.66218        25.32058        -1.61379
C         45.07162        27.46578        -1.47411
C         44.15065        26.46701        -0.77515
C         45.23562        28.81496        -0.68811
C         44.11430        29.40084        -0.15842
C         45.29626        31.63266         0.19809
C         44.03477        30.86432        -0.08515
C         45.36062        33.04163        -0.39825
C         44.01887        33.74173        -0.29651
C         45.31970        35.93285        -0.24114
C         44.01547        35.24869        -0.27796
C         45.38836        37.40664        -0.58606
C         44.05367        38.13325        -0.48089
C         45.07396        40.17975         0.54701
C         43.97509        39.47643        -0.21683
C         45.17997        41.66504         0.23276
C         44.00690        42.38663        -0.26141
C         45.28243        44.51417        -0.21480
C         44.11415        43.84047        -0.47090
C         45.41247        46.03277        -0.57844
C         44.13393        46.76211        -0.32095
C         43.90035        48.06245         0.08391
C         47.51935        27.61176        -1.51837
C         46.48428        26.95062        -1.65223
C         47.80882        28.90970        -0.99878
C         46.47323        29.67323        -0.99379
C         47.74245        31.58015         0.08016
C         46.57765        30.92863        -0.16263
C         47.72787        33.01792         0.61546
C         46.52168        33.81367         0.14901
C         47.81371        35.94798        -0.10103
C         46.50561        35.20936         0.01640
C         47.73303        37.35971         0.45249
C         46.51759        38.07208         0.17647
C         47.52669        40.12585         1.01252
C         46.41358        39.44988         0.52847
C         47.45395        41.58788         1.20345
C         46.32843        42.32628         0.55987
C         47.59464        44.48070         0.97829
C         46.56045        43.74375         0.08693
C         47.38544        45.87719         0.81346
C         46.55797        46.57481         0.22424
C         50.31178        28.96549        -0.74484
C         48.97800        29.46477        -0.58465
C         50.26776        31.68347        -0.19462
C         49.04288        30.79742         0.19478
C         50.30920        33.00013         0.64976
C         49.02527        33.77921         0.39506
C         50.23305        35.85563         0.74458
C         49.00827        35.13055         0.30223
C         50.06619        37.21308         1.37720
C         48.80094        37.95150         1.12414
C         50.02041        40.18725         1.53040
C         48.70731        39.39016         1.61492
C         50.01653        41.60668         1.61423
C         48.70227        42.32703         1.60685
C         49.93957        44.34665         1.89253
C         48.67243        43.82957         1.47966
C         51.40182        29.50602        -0.43525
C         52.73769        31.66927         0.09373
C         51.66618        30.86996        -0.16465
C         52.63474        32.97435         0.16854
C         51.60966        33.82893         0.32041
C         52.60058        36.14513         0.85585
C         51.55425        35.31782         0.15670
C         52.45911        37.25956         1.35114
C         51.29629        38.01549         1.92223
C         52.32804        40.33607         1.60407
C         51.24382        39.46784         1.57903
C         52.42488        41.59862         1.65239
C         51.24600        42.35929         1.73831
C         51.04566        43.77692         1.88519
O         47.72284        41.92413         2.64631
O         43.70975        34.44057         0.92265
O         41.88197        30.22280         1.58310
O         36.38787        36.07508         2.39511
O         40.86978        47.01666        -1.79581
O         39.05357        35.57056         1.53393
O         37.16818        44.38971        -2.35114
O         40.88980        44.29430        -2.37700
O         34.74889        38.45487         1.64788
O         48.07752        36.17672        -1.59379
O         41.25308        33.86871        -2.40132
O         42.25433        37.94255        -2.20811
O         31.84162        31.35568        -0.34603
O         39.18683        37.58126        -1.69377
O         38.51480        29.08537         2.14955
O         43.13231        45.51135        -2.10266
O         39.20797        33.16959        -1.43185
O         41.18168        41.74124        -2.27272
O         50.06014        35.97035         2.19354
O         42.98165        27.53040         1.07780
O         47.23055        43.62394        -1.20273
H         47.12203        44.48285        -1.67645
O         44.51863        27.82508        -2.72229
H         45.09388        28.52120        -3.11688
O         40.48304        32.31277         1.71965
H         40.75506        31.60789         2.35139
O         39.11121        43.68286         0.71388
H         38.54904        42.92100         0.99218
O         45.67840        37.50152        -2.03848
H         44.82140        37.41676        -2.51743
O         49.13365        30.42253         1.57850
H         49.16903        31.25455         2.11565
O         44.62987        40.09033         1.94103
H         45.34004        40.45701         2.51128
O         44.82687        26.00945         0.36593
H         44.22535        25.45913         0.90760
O         43.17794        35.56683        -2.43575
H         42.41965        35.00468        -2.78740
O         40.55383        27.76744         1.83238
H         40.85208        28.36871         2.54715
O         34.48419        34.46247        -0.59392
H         35.08901        33.80293        -1.01218
O         47.61784        32.95268         2.06718
H         46.73531        32.54543         2.26882
O         36.87389        32.95125        -0.77759
H         37.46529        32.79413        -1.55070
O         43.25387        32.53603        -2.21814
H         42.52388        32.88016        -2.81461
O         37.07766        33.72854         2.76596
H         37.92385        34.21328         2.90104
O         34.16215        35.00478         2.98816
H         35.08691        35.12754         3.31945
O         36.45860        37.44044        -1.39017
H         35.64971        37.80629        -1.82822
O         45.72195        32.86680        -1.80136
H         46.15906        33.69184        -2.12837
O         38.80948        42.51662        -2.77185
H         39.69926        42.68172        -3.16828
O         45.24871        31.79987         1.64981
H         44.90505        30.97174         2.04901
O         47.21679        35.31873        -2.38252
H         46.52047        35.97796        -2.66837
O         50.11053        32.08884        -1.55206
H         50.08087        31.29015        -2.12074
O         31.60072        37.91153        -1.46134
H         31.54300        36.98639        -1.77543
O         35.09206        28.65448         2.62819
H         35.89577        28.17677         2.92282
O         37.90445        40.79515         1.26844
H         37.96026        39.95380         1.79763
O         34.98385        41.37004        -2.44778
H         35.83238        41.50129        -2.92602
O         38.07270        38.11900         1.82747
H         37.53039        37.55984         2.44114
O         38.26875        31.62693         2.39560
H         37.49254        31.87565         2.94446
O         40.06766        28.26055        -1.70300
H         39.88393        27.63256        -2.43380
O         51.27549        37.93680         3.33483
H         51.05776        37.00718         3.57380
O         31.76220        39.34128         1.83475
H         31.77977        40.25181         2.19454
O         41.75161        47.50438         1.76273
H         41.88717        48.22144         2.41646
O         51.53103        35.64298        -1.22925
H         52.24640        35.15206        -1.68404
O         31.52466        35.32783         3.13233
H         32.41998        35.14121         3.50302
O         46.28466        30.12963        -2.37380
H         45.95208        31.06428        -2.35450
O         45.76353        46.09146        -1.96833
H         44.92790        46.00054        -2.49004
O         38.74279        30.61074        -1.07072
H         38.87462        31.43659        -1.59566
O         48.39104        39.28833         3.04026
H         48.22709        40.21050         3.35901
O         50.37897        32.68884         2.04485
H         51.24845        32.27153         2.22553
O         33.97501        38.85988        -1.89624
H         34.05063        39.65425        -2.48102
