         210
 CSIRO Nanostructure Databank - Neutral Graphene Oxide Data Set
C         30.72706        31.69493        -1.34080
C         30.58988        32.92833        -1.57860
C         30.84538        36.23189        -1.86639
C         30.80536        37.44295        -1.54422
C         30.52955        40.42036        -0.49540
C         30.41474        41.61821        -0.15084
C         33.13713        28.86203        -1.37526
C         32.04214        29.45423        -1.30884
C         32.95550        31.48028        -0.47328
C         31.80833        30.83835        -1.03513
C         32.99919        32.88596        -0.16605
C         31.25415        33.96431        -0.88801
C         32.82687        35.86371        -0.55187
C         31.66201        35.26863        -1.18546
C         32.76923        37.31273        -0.24465
C         31.68302        38.19117        -0.73667
C         32.81596        40.25785         0.06922
C         31.63233        39.53932        -0.36878
C         32.77628        41.67795         0.31135
C         31.51277        42.40823         0.27779
C         32.73459        44.30316         0.89667
C         31.62639        43.76663         0.64688
C         36.03088        27.35171        -1.02503
C         35.76048        28.80965        -1.17843
C         34.39118        29.27610        -0.76236
C         35.48078        31.58630        -0.26254
C         34.25179        30.76729        -0.33351
C         35.42247        33.00266        -0.24820
C         34.14145        33.70302        -0.26609
C         35.27359        35.92935        -0.14205
C         34.04988        35.16510        -0.25780
C         35.31944        37.34225        -0.00459
C         34.06800        38.08954         0.17904
C         35.28654        40.25692         0.23074
C         34.05693        39.55901         0.13368
C         35.28030        41.68208         0.41531
C         34.01830        42.36521         0.54620
C         35.25689        44.48294         0.91574
C         34.03824        43.77239         0.83398
C         35.42278        45.87253         1.12115
C         37.87335        27.32409         0.54850
C         37.00630        26.76211        -0.55500
C         37.93692        28.82285         0.24331
C         36.83645        29.48897        -0.28199
C         37.90503        31.66084         0.16963
C         36.73157        30.91856        -0.13958
C         37.84599        33.08855         0.13856
C         36.62203        33.74023        -0.09555
C         37.75127        35.97814         0.22532
C         36.58994        35.21162        -0.44486
C         37.83405        37.41972        -0.28854
C         36.52339        38.12147        -0.01801
C         37.77260        40.26832         0.22903
C         36.52640        39.52564         0.16116
C         37.76240        41.69090         0.33310
C         36.50940        42.39996         0.46483
C         37.72625        44.57869         0.61010
C         36.51133        43.82468         0.67632
C         37.78053        45.98079         0.81544
C         36.49606        46.51579         1.09550
C         40.42590        24.68020         1.20208
C         39.32377        25.28564         1.02733
C         40.34146        27.43119         1.13580
C         39.20337        26.68756         0.79090
C         40.32678        28.86682         0.98379
C         39.12697        29.54866         0.59122
C         40.33343        31.70683         0.65930
C         39.12913        30.96818         0.44953
C         40.30057        33.13736         0.53705
C         39.08196        33.83928         0.29597
C         40.27492        35.99009         0.33265
C         39.07310        35.24539         0.20354
C         40.25683        37.45676         0.32114
C         39.06227        38.15392         0.19353
C         40.25599        40.31774         0.26023
C         39.03038        39.58851         0.22348
C         40.24169        41.74928         0.25112
C         38.99636        42.41066         0.29371
C         40.28421        44.65876         0.25610
C         38.96579        43.88527         0.21708
C         40.27772        46.07380         0.68539
C         39.01801        46.70774         0.84948
C         40.23618        48.74227         1.31012
C         39.18226        48.07233         1.17460
C         42.95274        24.77077         1.78894
C         41.65078        25.18790         1.60056
C         42.82968        27.54878         1.74988
C         41.51626        26.78569         1.87490
C         42.78586        28.92245         1.48977
C         41.53063        29.61732         1.15643
C         42.78674        31.81852         1.31988
C         41.53861        31.01301         0.97916
C         42.75903        33.21224         0.76873
C         41.51394        33.88746         0.62421
C         42.76768        36.04008         0.77316
C         41.48606        35.30115         0.49836
C         42.72850        37.48629         0.36437
C         41.50682        38.18173         0.35010
C         42.73271        40.32124         0.16519
C         41.50255        39.61270         0.24774
C         42.73672        41.76617         0.20012
C         41.50082        42.48088         0.26212
C         42.76766        44.60189         0.45835
C         41.54067        43.89213         0.35052
C         42.76104        46.03190         0.68725
C         41.52160        46.76221         0.85952
C         42.82942        48.74296         1.26881
C         41.52812        48.18847         1.17809
C         43.97720        25.47098         2.05323
C         45.28375        27.63794         2.15941
C         44.10272        26.87412         2.01156
C         45.15488        29.03341         1.99908
C         44.00863        29.69053         1.51304
C         45.25668        31.71807         0.60013
C         44.08719        31.06663         1.09853
C         45.14392        33.09681         0.21277
C         43.95900        33.85904         0.40126
C         45.08477        36.00520        -0.15638
C         43.96375        35.29773         0.23965
C         45.15751        37.44213        -0.08408
C         43.94886        38.17282         0.14881
C         45.21347        40.26629        -0.04410
C         43.95639        39.59634         0.07021
C         45.20146        41.73893        -0.17396
C         43.96063        42.47868         0.14456
C         45.27461        44.58420         0.34811
C         44.00118        43.88632         0.30508
C         45.24766        45.99403         0.62366
C         44.02481        46.69052         0.79437
C         43.86747        48.06391         1.09370
C         47.70676        27.85918         1.82029
C         46.67310        27.26321         2.18139
C         47.98543        28.94025         0.90950
C         46.93340        29.90493         1.03883
C         47.50609        31.61464        -0.59195
C         46.52109        31.01359         0.27627
C         47.55429        33.09160        -0.55555
C         46.23842        33.77517        -0.50481
C         47.49243        36.03190        -1.02797
C         46.22429        35.27032        -0.72502
C         47.60209        37.44018        -0.60793
C         46.39361        38.12885        -0.25144
C         47.73833        40.21502         0.17071
C         46.41099        39.55625        -0.11983
C         47.78207        41.70247        -0.04986
C         46.52951        42.46887        -0.16796
C         47.78698        44.53808         0.31632
C         46.51646        43.89902         0.18748
C         47.64219        45.92568         0.58757
C         46.55355        46.52938         0.72010
C         50.40162        28.85865         0.18377
C         49.03951        29.05541        -0.03849
C         49.70053        31.66576        -1.77507
C         48.56312        30.97877        -1.22242
C         49.92570        33.02949        -1.52995
C         48.77941        33.79879        -0.99579
C         50.07147        35.93265        -1.15265
C         48.76375        35.26501        -1.28747
C         50.09186        37.33685        -0.92763
C         48.87191        38.09622        -0.65944
C         50.19283        40.18843        -0.34363
C         48.95584        39.49038        -0.36201
C         50.25954        41.61554        -0.07808
C         49.01179        42.36397         0.01984
C         50.31544        44.30269         0.24043
C         49.00162        43.81465         0.16734
C         51.38863        29.60127        -0.25227
C         52.39821        31.61455        -0.93695
C         52.45232        30.39469        -0.36091
C         52.36603        32.86537        -1.24268
C         51.21175        33.67771        -1.46367
C         52.39457        35.92388        -1.15376
C         51.24464        35.10036        -1.27838
C         52.46037        37.16238        -0.99320
C         51.34974        38.03964        -0.84088
C         52.54220        40.23898        -0.45477
C         51.39800        39.42004        -0.58164
C         52.66059        41.46314        -0.21928
C         51.52968        42.30478        -0.02098
C         51.42091        43.70799         0.15596
O         47.96721        35.75469        -2.40086
O         46.25863        29.83426         2.28822
O         48.62436        29.57102        -1.32974
O         33.12049        37.55972         1.14589
O         45.80698        42.18383        -1.44538
O         45.83002        34.35050        -1.79433
O         39.57150        44.42439        -1.01123
O         48.51756        33.58187         0.46251
O         34.25401        29.62994         0.61405
O         31.82540        33.48707         0.32328
O         50.55128        30.92317        -2.50237
H         50.23412        29.99069        -2.47600
O         38.01869        37.41399        -1.74637
H         38.09837        38.34593        -2.04184
O         47.85511        40.07816         1.65536
H         47.93526        39.12065         1.85713
O         42.92359        36.05517         2.23983
H         42.09050        36.40070         2.62508
O         37.41301        36.10772         1.63349
H         37.37773        35.21032         2.02676
O         36.69976        35.17871        -1.89153
H         37.04938        36.04760        -2.20554
O         35.96906        29.24118        -2.52003
H         36.79121        28.83303        -2.86158
O         42.71211        32.01318         2.78641
H         42.85300        31.13707         3.20682
O         37.14575        27.19600         1.77756
H         37.08156        26.24173         1.99427
O         41.17327        26.86125         3.27693
H         40.28047        26.47319         3.39693
