         317
 CSIRO Nanostructure Databank - Neutral Graphene Oxide Data Set
C         30.49537        32.07417         1.98325
C         30.42332        33.18820         1.44660
C         30.33189        36.10971         0.03170
C         30.28895        37.29437        -0.28805
C         30.32842        40.44891        -1.02411
C         30.15903        41.72605        -0.90301
C         32.83315        29.19357         2.02394
C         31.77973        29.83624         2.31234
C         32.84173        31.83391         1.52170
C         31.62976        31.19172         1.98635
C         32.81854        33.25262         1.05741
C         31.53951        34.15567         1.22775
C         32.71015        35.99843         0.05171
C         31.42518        35.09109         0.02406
C         32.69521        37.45667        -0.33215
C         31.40554        38.09070        -0.92457
C         32.64983        40.35152        -0.49877
C         31.36533        39.57993        -0.77812
C         32.64342        41.78726        -1.11229
C         31.30032        42.53690        -1.34158
C         32.60969        44.58063        -1.13233
C         31.53603        43.98345        -1.23213
C         35.41519        27.38302         1.21621
C         35.07631        28.77391         0.75717
C         34.04865        29.61926         1.48768
C         35.20185        31.69182         0.69291
C         34.00947        31.03680         1.30843
C         35.27204        33.20467         0.84210
C         33.93913        33.85318         0.54986
C         35.27906        35.99489         0.03793
C         33.98238        35.19979        -0.17317
C         35.24210        37.53613         0.00295
C         33.96329        38.15094        -0.52467
C         35.20657        40.41349        -0.61172
C         33.91589        39.58157        -1.00660
C         35.16687        41.79600        -1.32162
C         33.91408        42.59496        -0.79936
C         35.13524        44.71113        -0.48593
C         34.02310        44.14785        -1.33772
C         35.27962        45.86340         0.23745
C         37.65097        27.16748         0.19383
C         36.37767        26.74392         0.77577
C         37.62341        28.72286         0.02520
C         36.51675        29.44371         0.84936
C         37.78629        31.58779         0.09757
C         36.44080        30.90232         0.40947
C         37.78263        33.06872         0.55398
C         36.46714        33.79359         0.04438
C         37.76971        35.96417        -0.19779
C         36.45734        35.32114         0.13714
C         37.77868        37.40863        -0.60388
C         36.47496        38.17186        -0.67199
C         37.74845        40.45518        -0.87751
C         36.48151        39.65079        -0.95840
C         37.75992        41.81368        -0.86165
C         36.52653        42.65331        -1.24484
C         37.71204        44.72737        -0.30261
C         36.41515        43.85603        -0.22320
C         37.63739        45.97704         0.61835
C         36.31506        46.43937         0.76690
C         40.17510        24.37882         0.59858
C         39.12677        25.03043         0.61056
C         40.28180        27.11559         0.13718
C         38.93180        26.40931         0.15080
C         40.21484        28.61496         0.00942
C         38.97310        29.34252         0.33333
C         40.31765        31.54642         0.81480
C         39.00769        30.80376         0.60652
C         40.34691        33.14808         0.91786
C         39.11505        33.73779         0.11214
C         40.31819        35.71937        -0.46372
C         39.04177        35.29307         0.32104
C         40.25454        37.82572         0.15347
C         39.07513        38.22857        -0.74225
C         40.30364        40.42920        -0.87297
C         38.98294        39.73608        -0.35472
C         40.36048        41.86659        -0.33256
C         39.06432        42.62977        -0.76605
C         40.22838        44.69458         0.11963
C         38.94311        43.87628         0.13817
C         40.15062        45.94313         0.68870
C         38.83800        46.53004         1.03851
C         39.99015        48.54726         1.88479
C         39.02755        47.77871         1.71350
C         42.72394        24.33693         0.09653
C         41.54482        24.91660         0.81789
C         42.81211        27.16742         0.33690
C         41.45919        26.45167         0.31743
C         42.85554        28.64860        -0.16670
C         41.50494        29.39504        -0.04067
C         42.77739        31.28214         0.83464
C         41.56312        30.77707         0.50309
C         42.87271        33.44915         0.94376
C         41.62561        33.93358         0.53953
C         42.83562        36.01356         0.01774
C         41.62498        35.27540         0.11016
C         42.80989        37.54833         0.22686
C         41.59380        38.32847        -0.26412
C         42.83434        40.47064        -0.44801
C         41.59857        39.68054        -0.52240
C         42.85600        41.84101        -0.45421
C         41.60617        42.61518        -0.86373
C         42.72079        44.54670         0.53135
C         41.56181        44.16735        -0.44801
C         42.76080        46.10492         0.72286
C         41.38855        46.63053         1.26287
C         42.61151        48.64942         1.90725
C         41.34075        48.27035         1.21501
C         43.71867        24.98683        -0.23511
C         45.32408        27.14055        -0.44704
C         44.02906        26.40537        -0.36955
C         45.44063        28.49689         0.35508
C         44.11814        29.25978         0.49126
C         45.27177        31.58780         0.03917
C         44.13185        30.73098         0.61676
C         45.35203        33.08330         0.55372
C         44.10298        33.95947         0.49856
C         45.38579        35.98474        -0.29639
C         44.07798        35.31608         0.09606
C         45.36867        37.48774        -0.03676
C         44.08252        38.20804        -0.24333
C         45.35865        40.42017        -0.16107
C         44.10461        39.68972        -0.43862
C         45.37730        41.77764        -0.12189
C         44.16938        42.59840        -0.55259
C         45.29321        44.54521         0.82350
C         44.09928        43.99631         0.10874
C         45.15706        45.76751         1.73736
C         43.87146        46.52432         1.73560
C         43.61759        47.94333         2.01773
C         47.70628        27.32192        -0.47474
C         46.69830        26.61681        -0.49402
C         48.01731        28.67801         0.08417
C         46.63404        29.42925         0.04972
C         47.78801        31.61902        -0.49493
C         46.59698        30.79896         0.06044
C         47.91542        33.08776         0.01075
C         46.65541        33.81593         0.43111
C         47.85963        35.98809        -0.25831
C         46.63897        35.36382         0.40611
C         47.78343        37.48701        -0.48052
C         46.53433        38.16938         0.01432
C         47.81077        40.38158        -0.47305
C         46.61911        39.66263         0.26348
C         47.83404        41.78978         0.12647
C         46.63900        42.43156         0.27292
C         47.81858        44.54174         1.04211
C         46.52626        43.68662         1.11118
C         47.50372        45.79450         1.50806
C         46.48361        46.32440         2.08397
C         50.48053        28.96570        -0.48115
C         49.07153        29.41931        -0.72793
C         50.37709        31.68667        -0.72950
C         49.14925        30.92762        -0.20302
C         50.17665        33.09745        -1.31378
C         49.12329        33.85946        -0.46579
C         50.16503        36.21496        -1.17442
C         48.99923        35.34497        -0.61296
C         50.26989        37.39466        -0.22666
C         49.04151        38.15603         0.07831
C         50.35812        40.26258         0.32880
C         49.20437        39.63723        -0.46382
C         50.38094        41.64717         0.60846
C         49.05631        42.38912         0.79150
C         50.37100        44.40932         1.11497
C         49.07583        43.94149         0.49552
C         51.52843        29.62137        -0.40345
C         52.72628        31.91932        -0.89297
C         51.60586        31.04895        -0.63974
C         52.68396        33.11075        -1.21771
C         51.50481        33.93319        -1.48934
C         52.59246        36.23592        -0.88432
C         51.49300        35.41484        -1.37903
C         52.66147        37.25399        -0.19865
C         51.50435        37.92254         0.48654
C         52.59573        40.20457         0.94180
C         51.51376        39.44049         0.51135
C         52.69088        41.44968         1.17030
C         51.58639        42.30230         1.05751
C         51.38608        43.71430         1.23436
O         40.74453        29.19340        -1.28489
O         40.27747        35.91370        -1.67772
O         32.67327        36.96758         1.11643
O         45.02717        44.90163        -0.56611
O         35.47358        31.17272        -0.65770
O         32.07497        41.94088        -2.41805
O         44.51568        26.94095        -1.60844
O         38.11396        26.55529        -1.03984
O         49.02408        33.38737         0.91083
O         47.51645        31.66832        -1.88507
O         37.77138        36.32569        -1.60933
O         44.18105        29.87045         1.82801
O         40.09367        37.60671         1.37033
O         39.54866        31.05411         1.96538
O         42.84004        32.32541         1.75615
O         44.18395        45.64333         2.80678
O         51.54414        34.77562        -2.66437
O         36.73001        43.19646        -2.51536
O         36.29457        38.68430        -2.03585
O         44.09635        38.74973        -1.60547
O         31.72018        34.93165         2.40117
H         31.51304        34.38717         3.18767
O         38.82049        39.86264         1.07448
H         39.22263        39.09496         1.55396
O         39.29530        43.14683        -2.08618
H         39.43534        42.37148        -2.68002
O         48.76926        29.37571        -2.09597
H         48.22628        30.19031        -2.32372
O         43.10931        46.76922        -0.47939
H         42.60234        46.37453        -1.23035
O         43.14687        27.26745         1.73020
H         42.92090        26.41668         2.17991
O         46.17237        33.30358         1.73118
O         39.41170        33.47541        -1.25077
H         38.72131        33.87373        -1.82352
O         49.70135        39.58111        -1.78914
H         49.08752        40.09423        -2.36893
O         42.46621        43.89520         1.77478
H         41.87085        44.45031         2.33270
O         46.63703        35.83265         1.76475
H         46.48138        35.04823         2.34415
O         31.42697        37.76966        -2.31500
H         30.92444        38.44766        -2.81395
O         48.88907        38.27904         1.51812
H         49.61678        37.78064         1.96660
O         33.72586        39.46743        -2.42522
H         34.57812        39.17235        -2.82417
O         48.82402        42.27737         2.23322
H         48.70671        41.32467         2.44325
O         51.45458        37.48586         1.86502
H         52.23132        37.85925         2.33494
O         45.57814        35.78301        -1.72467
H         44.78765        36.12797        -2.19382
O         36.29607        33.57305        -1.36657
H         36.60364        32.65454        -1.60398
O         41.67337        42.57162        -2.29712
H         42.62473        42.67408        -2.55294
O         34.32951        44.25425        -2.69552
H         35.28817        43.98798        -2.84335
O         34.96108        41.53499        -2.69879
H         35.62208        42.09562        -3.19190
O         35.30942        37.94900         1.41863
H         34.45911        37.64687         1.82669
O         31.37280        34.30100        -1.13554
H         31.35788        34.87757        -1.92755
O         49.11718        44.12327        -0.91258
H         49.08234        45.08046        -1.11808
O         44.91916        31.71784        -1.35499
H         45.78589        31.72537        -1.86743
O         37.77606        33.04281         1.98009
H         37.79688        33.97202         2.30589
O         48.41952        28.53752         1.43067
H         47.66636        28.10908         1.90513
O         47.41062        40.49783        -1.85095
H         47.18390        39.58440        -2.16234
O         36.94954        29.40501         2.21415
H         36.25985        29.79088         2.79282
O         36.32477        43.39312         1.12082
H         35.45272        42.92535         1.23373
O         35.25591        40.62549         0.80906
H         35.30332        39.73892         1.25694
O         37.88507        45.27128        -1.58612
H         37.65052        44.54694        -2.25168
O         41.72699        44.91144        -1.66956
H         41.14774        44.46687        -2.33875
O         42.82479        37.68831         1.67254
H         41.91201        37.50191         2.00149
O         47.67929        37.74514        -1.90932
H         47.06213        37.06364        -2.27130
O         37.32151        28.95897        -1.37468
H         37.69632        28.19935        -1.88467
O         41.82865        24.95673         2.20392
H         41.97029        24.04242         2.52707
O         49.66979        32.98096        -2.64257
H         48.81559        32.45320        -2.60430
O         43.17506        28.80493        -1.54953
H         42.35056        28.71250        -2.07977
O         41.38025        46.25608         2.65038
H         40.56462        46.60180         3.07465
O         40.26193        33.41843         2.32688
H         39.76052        32.66789         2.73905
O         49.25740        30.88906         1.21439
H         50.11227        30.47658         1.46130
O         33.95572        34.90702        -1.59355
H         34.76871        34.37515        -1.80563
O         40.56232        41.83382         1.07691
H         39.81269        41.34646         1.49395
O         39.45354        38.16501        -2.11608
H         39.11918        37.30980        -2.48424
O         35.46664        33.52107         2.24686
H         34.63835        33.30689         2.72589
O         38.82180        43.53905         1.52752
H         37.92871        43.14709         1.68878
O         46.35484        43.28541         2.47800
H         47.18215        42.81883         2.75735
O         40.21107        40.56632        -2.29725
H         40.12824        39.66815        -2.69763
O         32.73239        40.43495         0.94930
H         31.83098        40.60920         1.29733
O         45.75906        27.95818         1.67674
H         45.37043        28.57796         2.34001
O         34.63506        28.65778        -0.58335
H         34.66648        29.55035        -1.00414
O         49.81594        36.67352        -2.48692
H         50.12743        35.98870        -3.12515
O         41.28908        48.71831        -0.08971
H         41.53181        49.66445        -0.13940
O         39.02244        35.57194         1.71778
H         39.73750        35.05867         2.17736
O         37.91493        31.55166        -1.33974
H         37.76478        30.61231        -1.63493
O         44.34734        42.85224        -1.98147
H         44.93557        43.64091        -2.05782
O         33.88197        42.78226         0.62693
H         33.64561        41.91324         1.05178
O         46.75146        39.85617         1.69121
H         47.26635        39.09309         2.04810
