         429
 CSIRO Nanostructure Databank - Neutral Graphene Oxide Data Set
C          3.00190         1.91141        -3.86399
C          2.75204         3.24004        -3.50195
C          4.17215         1.29186        -3.45600
C          3.67211         3.95218        -2.71301
C          2.27406         6.01961        -2.67802
C          2.13007         7.41930        -2.51445
C          3.48457         5.38130        -2.48386
C          3.17881         8.21849        -2.04531
C          1.96387        10.39214        -2.57506
C          2.03385        11.72330        -2.79453
C          2.93027         9.67139        -1.66810
C          3.14595        12.53495        -2.32288
C          1.90795        14.68925        -2.76800
C          1.86855        16.03616        -2.87067
C          3.13205        13.96602        -2.43570
C          3.12890        16.86298        -2.83832
C          2.94608        18.29188        -2.39906
C          5.09845         1.93463        -2.58846
C          4.82719         3.29103        -2.19140
C          6.31285         1.20727        -2.31430
C          5.75461         4.09112        -1.39959
C          4.71055         6.22391        -2.22377
C          4.41534         7.61591        -1.72891
C          5.74588         5.50863        -1.40286
C          5.43524         8.33246        -1.03506
C          4.22035        10.44403        -1.50406
C          4.24797        11.84214        -1.76109
C          5.35341         9.77886        -1.00192
C          5.50000        12.56142        -1.49754
C          4.25324        14.74202        -2.05861
C          4.22867        16.16750        -2.07390
C          5.49387        14.08052        -1.63818
C          5.29696        16.91754        -1.56524
C          3.95112        18.98822        -1.82999
C          5.22022        18.36749        -1.46465
C          7.11956         1.46559        -1.20335
C          6.71449         3.47919        -0.57437
C          8.46784         1.19464        -0.93400
C          7.89723         4.12245        -0.13107
C          6.69113         6.23239        -0.63641
C          6.54190         7.64705        -0.47389
C          7.83939         5.55155        -0.07254
C          7.48226         8.37726         0.40748
C          6.47335        10.54327        -0.50560
C          6.50810        11.90628        -0.65220
C          7.50012         9.87930         0.33280
C          7.50207        12.71245         0.08371
C          6.50964        14.87974        -0.94463
C          6.43735        16.25242        -0.99525
C          7.52721        14.20214        -0.11295
C          7.62242        17.05776        -0.61989
C          6.25062        19.11465        -0.92739
C          7.48045        18.52560        -0.43928
C          9.24987         1.96520        -0.00030
C          9.04974         3.38381         0.29359
C         10.39996         1.34058         0.50399
C         10.12753         4.12579         0.87141
C          8.90592         6.25366         0.52777
C          8.68914         7.66569         1.02501
C         10.05742         5.56078         0.96021
C          9.96746         8.49890         0.98621
C          8.73442        10.64160         0.68651
C          8.72219        12.04870         0.59357
C          9.89404         9.98180         1.13680
C          9.85375        12.81001         0.97027
C          8.76212        14.90973         0.23828
C          8.79970        16.35702        -0.02002
C          9.84336        14.26081         0.80582
C          9.83372        17.14015         0.65055
C          8.49050        19.24246         0.13614
C          9.65737        18.61908         0.87067
C         11.37210         2.03186         1.27081
C         11.27195         3.45598         1.39663
C         12.47284         1.36094         1.82539
C         12.31379         4.17353         2.06272
C         11.15729         6.28604         1.55686
C         11.20294         7.77273         1.40625
C         12.20934         5.60778         2.14409
C         12.22435         8.53492         2.17152
C         11.01863        10.72844         1.57257
C         11.01322        12.14802         1.46837
C         12.15479        10.03394         2.23800
C         12.21900        12.93018         1.73931
C         11.03238        15.02838         1.12966
C         10.98929        16.48140         1.04620
C         12.19608        14.37913         1.53473
C         12.18813        17.25108         1.25218
C         10.97048        19.34081         0.75434
C         12.16648        18.68551         1.01954
C         13.55683         2.07356         2.40589
C         13.46087         3.50282         2.54661
C         14.73451         1.36310         2.71173
C         14.65200         4.26157         3.03547
C         13.10669         6.32590         3.11777
C         13.02999         7.81149         2.99022
C         14.58596         5.75875         3.18783
C         14.92520         8.89567         3.08698
C         13.41821        10.88663         2.52868
C         13.39232        12.30829         2.12182
C         14.76025        10.26024         2.62792
C         14.65946        13.09126         2.37993
C         13.41885        15.14588         1.65570
C         13.40289        16.57450         1.44940
C         14.63848        14.49433         1.84844
C         14.63592        17.29740         1.41389
C         13.41883        19.39018         1.03287
C         14.62601        18.72546         1.21418
C         16.01965         2.04837         2.84057
C         15.99803         3.57910         2.91229
C         17.21045         1.42495         2.28858
C         17.11903         4.31638         2.30541
C         15.97210         6.55962         3.07050
C         15.90326         8.04323         2.65523
C         16.95411         5.78308         2.13771
C         17.01825         8.72751         1.85153
C         15.90386        10.94284         2.22209
C         15.91092        12.33892         2.00599
C         17.20466        10.18342         2.32006
C         17.10463        13.02527         1.69589
C         15.87298        15.18132         1.65341
C         15.86002        16.59974         1.45887
C         17.09738        14.46140         1.55690
C         17.09437        17.30202         1.25550
C         15.89214        19.42105         1.19717
C         17.09026        18.75244         1.21522
C         18.33235         2.17737         1.90397
C         18.26473         3.64954         1.89685
C         19.42974         1.50202         1.35299
C         19.41189         4.38185         1.37860
C         18.13951         6.50747         1.54919
C         18.34260         7.95775         1.95366
C         19.36477         5.74188         1.24596
C         19.48074         8.67854         1.24073
C         18.35698        10.87189         1.62024
C         18.31889        12.28990         1.46401
C         19.49056        10.13549         1.25897
C         19.50527        12.99468         1.08044
C         18.29720        15.15832         1.21020
C         18.27486        16.57819         1.05975
C         19.50209        14.42022         1.00462
C         19.47133        17.36964         0.57320
C         18.40469        19.52107         1.24720
C         19.61777        18.60093         1.53021
C         20.52914         2.21669         0.63859
C         20.71383         3.61743         1.23488
C         21.85187         1.48602         0.70505
C         21.83276         4.32400         0.48958
C         20.47621         6.49692         0.60531
C         20.55170         7.96884         0.75796
C         21.68291         5.74671         0.13181
C         21.90241         8.64049         0.66400
C         20.67279        10.83034         0.78831
C         20.69322        12.27380         0.78397
C         21.79322        10.11342         0.37638
C         21.92164        12.97587         0.54932
C         20.71534        15.11630         0.67731
C         20.69855        16.50889         0.44170
C         21.94167        14.41090         0.50518
C         21.87203        17.11019        -0.00415
C         20.93700        19.36775         1.55583
C         22.00048        19.18482         0.70816
C         23.03778         2.17584         0.53833
C         23.00273         3.62358         0.26775
C         24.30242         1.51593         0.52119
C         24.21977         4.26641        -0.19459
C         22.90079         6.47929        -0.35354
C         23.01068         7.93350        -0.10425
C         24.15573         5.68079        -0.62970
C         24.19731         8.58400        -0.27221
C         23.01995        10.83406         0.04327
C         23.11549        12.26752         0.33214
C         24.27549        10.06824        -0.18353
C         24.38005        12.92799         0.22943
C         23.16512        15.09999         0.24802
C         23.13692        16.50241         0.05164
C         24.41372        14.36620         0.19196
C         24.36249        17.32720        -0.12446
C         23.38175        19.52063         0.87610
C         24.45008        18.75613         0.33149
C         25.48812         2.19257         0.19755
C         25.43686         3.59823        -0.18060
C         26.72973         1.51971         0.21137
C         26.69772         4.27295        -0.47271
C         25.44864         6.41252        -0.82333
C         25.45333         7.92575        -0.70077
C         26.71458         5.68353        -0.65426
C         26.74584         8.61790        -0.45117
C         25.55032        10.69648         0.33177
C         25.58719        12.19511         0.15708
C         26.79288         9.98822        -0.13958
C         26.84029        12.85824         0.15281
C         25.64099        15.03388         0.11712
C         25.68663        16.50468        -0.05904
C         26.87505        14.29943         0.18487
C         26.91315        17.19670         0.27778
C         25.72864        19.34399         0.34671
C         26.95293        18.61016         0.27614
C         27.95428         2.11052        -0.18304
C         27.91063         3.53186        -0.53571
C         29.12895         1.31903        -0.04112
C         29.11030         4.27876        -0.76755
C         27.92413         6.42856        -0.72130
C         27.94907         7.88948        -0.63645
C         29.12620         5.69865        -0.73544
C         29.18372         8.58484        -0.50381
C         28.02659        10.66992        -0.00861
C         28.06417        12.11693         0.15397
C         29.22804         9.93938        -0.14003
C         29.31175        12.79760         0.17730
C         28.11627        14.96376         0.30892
C         28.11170        16.41943         0.72865
C         29.33685        14.23263         0.27723
C         29.38903        17.13445         0.41994
C         28.20889        19.27346         0.31539
C         29.42880        18.53776         0.29972
C         30.39300         1.57942        -0.65115
C         30.32351         3.62131        -1.10657
C         31.69567         1.25996        -0.35317
C         31.63263         4.13491        -0.71534
C         30.41591         6.38870        -0.90088
C         30.44907         7.88399        -0.79048
C         31.66582         5.65367        -0.55944
C         31.74099         8.53194        -0.47652
C         30.50951        10.56817         0.35683
C         30.55538        12.07710         0.18634
C         31.75823         9.84793        -0.10169
C         31.77134        12.75833         0.23650
C         30.60176        14.90045         0.36621
C         30.62040        16.36072         0.56952
C         31.81566        14.19400         0.27982
C         31.93880        17.09333         0.41777
C         30.67873        19.21078         0.09204
C         31.89690        18.52631         0.04950
C         32.84389         1.88631        -1.13916
C         32.89536         3.40744        -0.90388
C         34.16032         1.24793        -0.79158
C         34.09043         4.11850        -0.83973
C         32.95483         6.34608        -0.69308
C         32.97132         7.76247        -0.61387
C         34.14236         5.57881        -0.77680
C         34.21849         8.43252        -0.56111
C         33.04595        10.50990         0.14626
C         33.05710        12.01759         0.32873
C         34.27605         9.83427        -0.29823
C         34.33543        12.71205         0.09239
C         33.09840        14.88647         0.19323
C         33.14068        16.29759         0.11417
C         34.33427        14.16149         0.09423
C         34.33922        16.98940        -0.18547
C         33.10170        19.14557        -0.33474
C         34.32142        18.42569        -0.41012
C         35.33273         1.94222        -0.79243
C         35.34919         3.40194        -0.91883
C         36.60401         1.26345        -0.60237
C         36.55248         4.07651        -1.04124
C         35.39354         6.25840        -0.87009
C         35.43177         7.69527        -0.75721
C         36.60677         5.51314        -1.03533
C         36.64738         8.40419        -0.85439
C         35.48264        10.54268        -0.36113
C         35.49592        11.96939        -0.13975
C         36.70889         9.82501        -0.66660
C         36.80597        12.64788        -0.04588
C         35.55250        14.87352        -0.01311
C         35.56386        16.27637        -0.23285
C         36.83166        14.14604         0.12413
C         36.79675        16.98063        -0.50820
C         35.51557        19.08082        -0.74201
C         36.75441        18.38952        -0.80174
C         37.79396         1.90018        -0.81119
C         37.79743         3.29734        -1.39432
C         39.06002         1.22288        -0.65599
C         39.08243         4.05021        -1.16019
C         37.84730         6.18014        -1.19560
C         37.84095         7.64762        -1.27203
C         39.09248         5.47246        -1.21922
C         39.18411         8.35687        -1.25688
C         37.94671        10.51060        -0.68683
C         38.03707        11.93834        -0.49641
C         39.20542         9.76157        -0.77986
C         39.19129        12.64488        -0.76167
C         38.16235        14.88666        -0.03368
C         38.02811        16.30904        -0.53115
C         39.14769        14.14662        -0.95926
C         39.21916        16.98212        -0.88097
C         37.95064        19.07148        -1.09966
C         39.18451        18.39218        -1.14122
C         40.23753         1.89051        -0.80462
C         40.27234         3.32400        -1.01128
C         41.51652         4.01620        -0.99912
C         40.36338         6.16258        -1.21309
C         40.43270         7.58320        -1.22569
C         41.55772         5.38378        -1.12596
C         41.63270         8.32901        -1.43026
C         40.52962        10.49695        -0.98050
C         40.45548        11.98590        -1.27239
C         41.64476         9.70339        -1.50128
C         41.67526        12.71997        -0.77812
C         40.48837        14.84994        -0.84503
C         40.48131        16.27322        -0.93153
C         41.67109        14.08418        -0.66774
C         41.66191        17.01988        -1.14591
C         40.40498        19.08263        -1.39354
C         41.61475        18.40232        -1.37023
O         21.78241        18.42401        -0.46465
O          8.76270        16.70635        -1.49413
O          6.08596        13.21291        -2.68822
O         38.44116         8.19863        -2.51210
O         20.56469         6.02691        -0.80505
O         12.43572        10.57117         3.56550
O         31.41017        16.79189         1.75691
O          6.82418         9.18934         1.45470
O         25.09755        17.00451        -1.32646
O          6.86273        13.59343         1.08660
O          6.47625         2.17894        -0.15867
O         23.64554        10.63739        -1.35837
O         25.43333         7.27050        -2.00758
O         31.52379         4.82025         0.61445
O         23.21697         5.99550        -1.70195
O         40.10161        10.04934         0.34369
O         36.90698        13.27046         1.30053
O         16.31167         2.80515         4.09626
O         14.60345         4.89824         4.36742
O         30.23113         2.45548        -1.81574
O         16.96046         6.20609         0.72525
O         30.49210         7.21213        -2.10678
O         13.88999         8.42259         3.91366
O         10.97880         8.14318        -0.01360
O         33.12326        11.11217         1.50117
O         19.14239        17.91101        -0.73351
H         19.26704        17.20580        -1.40159
O         16.63502         8.82878         0.46667
H         16.56173         7.91136         0.10939
O         40.41699        12.12550        -2.73995
H         41.28014        11.82371        -3.09566
O         38.66409        14.32280        -2.32357
H         39.21354        13.73309        -2.89295
O         21.18424         3.39856         2.59810
H         21.20501         4.26130         3.06239
O         12.49455         6.05747         4.40588
H         13.01151         6.54396         5.08336
O         18.37697        20.48761         2.30813
H         17.55668        21.01638         2.23072
O         28.02796        16.37587         2.21891
H         28.94531        16.28101         2.55871
O         14.73759        13.22951         3.85406
H         13.86591        13.55421         4.16620
O         18.79489         7.87123         3.32912
H         18.41477         8.62836         3.83806
O         19.45687        18.09032         2.86976
H         19.15958        18.84753         3.42156
O          8.41180         7.48402         2.44273
H          7.71871         8.14322         2.68828
O         38.77571        14.98638         1.27029
H         38.38752        14.26742         1.82421
O          2.29583         9.62497        -0.34368
H          2.18392        10.54958        -0.03747
O         17.54059        10.17262         3.74418
H         17.44568        11.08723         4.08635
O         32.67164         1.66042        -2.56833
H         31.73152         1.85525        -2.78712
O         25.50171        10.45461         1.78227
H         26.32877        10.80846         2.17397
O         30.48191        10.35254         1.81268
H         31.36448        10.65276         2.14747
O         37.73456         3.11261        -2.85565
H         36.91390         2.61065        -3.05011
O          5.33328         6.41853        -3.56399
H          4.66022         6.85218        -4.13144
O         20.14258         2.33247        -0.76238
H         20.73805         2.98900        -1.18576
O         22.40773         8.55764         2.06570
H         21.72876         8.96124         2.64999
O          9.27030        18.75012         2.30876
H         10.04761        18.47731         2.84269
O         16.55249         6.53178         4.38058
H         16.15219         5.76708         4.86359
O          3.58971        16.93780        -4.23614
H          3.82220        16.02617        -4.51427
H          2.28695         1.37505        -4.50301
H          1.85326         3.73934        -3.88897
H          4.38356         0.26219        -3.77899
H          1.37498         5.43814        -2.92762
H          1.13733         7.85804        -2.68174
H          1.10755         9.83233        -2.97847
H          1.25475        12.20369        -3.40394
H          0.97502        14.11746        -2.87699
H          0.91947        16.54134        -3.10600
H          1.99807        18.79181        -2.64962
H          6.62614         0.44505        -3.04320
H          3.81786        20.05415        -1.58863
H          8.97675         0.37616        -1.46529
H          6.12391        20.20347        -0.82359
H         10.55532         0.27026         0.30169
H          8.38120        20.33386         0.23799
H         12.54873         0.26839         1.72170
H         10.96854        20.43016         0.59868
H         14.76066         0.28706         2.48043
H         13.41451        20.47699         0.86100
H         17.18859         0.34726         2.06777
H         15.87313        20.52205         1.14749
H         19.42649         0.40080         1.35394
H         18.55377        20.05067         0.26440
H         21.86220         0.38844         0.78711
H         21.11166        19.93447         2.48395
H         24.34419         0.44187         0.75574
H         23.64857        20.41411         1.46217
H         26.73892         0.46386         0.52292
H         25.80042        20.42037         0.56446
H         29.01585         0.36748         0.50061
H         28.24017        20.37198         0.28993
H         31.91919         0.66636         0.54325
H         30.66477        20.29147        -0.11275
H         34.17960         0.15377        -0.67367
H         33.10119        20.21859        -0.57722
H         36.58786         0.20372        -0.30381
H         35.49810        20.16249        -0.94201
H         39.05282         0.15218        -0.40245
H         37.92193        20.15543        -1.28563
H         41.19445         1.36060        -0.69007
H         42.44826         3.44159        -0.89631
H         42.53165         5.89154        -1.12196
H         42.55385         7.78697        -1.68860
H         42.53157        10.22391        -1.89346
H         42.59483        12.15015        -0.57982
H         42.60625        14.59862        -0.39816
H         42.63415        16.50855        -1.18084
H         40.37964        20.16413        -1.58964
H         42.55106        18.94896        -1.55135
