         344
 CSIRO Nanostructure Databank - Neutral Graphene Oxide Data Set
C          1.20062         2.03860        -0.51699
C          1.17323         3.43722        -0.50392
C          2.40135         1.34311        -0.48203
C          2.37892         4.19008        -0.48556
C          1.17327         6.40256        -0.70309
C          1.17186         7.74639        -0.94544
C          2.38213         5.64091        -0.56844
C          2.45165         8.49527        -1.20825
C          1.24105        10.73549        -1.11747
C          1.23549        12.13195        -1.05655
C          2.40560         9.98862        -0.90823
C          2.40516        12.86126        -0.74974
C          1.26829        15.12162        -1.07949
C          1.29720        16.47760        -1.23603
C          2.46023        14.32738        -0.86954
C          2.55089        17.20464        -1.43809
C          2.63447        18.68654        -1.30884
C          3.63963         2.05298        -0.39122
C          3.60222         3.48486        -0.41572
C          4.85729         1.36235        -0.25843
C          4.88856         4.22038        -0.64143
C          3.60718         6.38138        -0.42207
C          3.59630         7.78555        -0.52577
C          4.85704         5.67606        -0.25902
C          4.75280         8.55225        -0.10701
C          3.60171        10.69517        -0.58082
C          3.57620        12.11696        -0.46461
C          4.82734         9.99411        -0.34016
C          4.81650        12.79137        -0.07545
C          3.68254        14.98070        -0.76573
C          3.83325        16.40273        -1.13407
C          4.86569        14.29696        -0.23012
C          4.97322        17.15085        -0.61389
C          3.71680        19.31387        -0.82193
C          4.84434        18.57108        -0.14222
C          6.07100         2.06890         0.26366
C          6.13065         3.51058        -0.17264
C          7.37952         1.34052         0.08923
C          7.31848         4.19447        -0.17078
C          6.07026         6.33928        -0.11316
C          6.07980         7.78530         0.14823
C          7.33019         5.63983        -0.16010
C          7.34187         8.52514        -0.01842
C          6.07709        10.67038        -0.17394
C          6.08147        12.06850        -0.05111
C          7.32523         9.92526        -0.12216
C          7.29464        12.79766         0.47467
C          6.19804        14.94383        -0.54719
C          6.15264        16.40459        -0.07393
C          7.37871        14.26656         0.11291
C          7.45839        17.12807        -0.42586
C          6.18954        19.27090        -0.13153
C          7.38984        18.60004        -0.07329
C          8.57751         1.99720        -0.03219
C          8.61964         3.46219        -0.40581
C          9.84051         1.31879         0.03163
C          9.83480         4.18850         0.09918
C          8.54395         6.34793        -0.00342
C          8.54273         7.76637        -0.02176
C          9.81287         5.62497         0.17853
C          9.84241         8.46137        -0.00349
C          8.58539        10.67037        -0.27709
C          8.59256        12.14965         0.04867
C          9.88881         9.95875        -0.11507
C          9.81801        12.79756         0.50512
C          8.53823        14.95248         0.36154
C          8.64081        16.38537         0.15554
C          9.71831        14.22597         0.98855
C          9.81433        17.07299         0.39622
C          8.64582        19.25282         0.13091
C          9.84142        18.53172         0.30082
C         11.04822         2.01737         0.12185
C         11.03605         3.47466         0.25674
C         12.29732         1.34227         0.18277
C         12.25138         4.15310         0.52680
C         10.97562         6.31134         0.49282
C         10.93985         7.78621         0.78147
C         12.21143         5.59146         0.94678
C         12.25559         8.50092         0.60682
C         11.06342        10.66788         0.41975
C         11.03329        12.09006         0.61816
C         12.26552         9.91746         0.59983
C         12.24262        12.79977         0.92647
C         11.03449        14.95461         0.82177
C         11.04643        16.35219         0.69269
C         12.25281        14.22058         0.95632
C         12.27813        17.06407         0.78205
C         11.08309        19.19822         0.42790
C         12.29546        18.50720         0.62996
C         13.51428         2.02848         0.31288
C         13.49863         3.48126         0.46385
C         14.75055         1.34056         0.39481
C         14.70206         4.20209         0.53500
C         13.48853         6.34740         0.68097
C         13.47391         7.77031         0.62260
C         14.70442         5.63795         0.62532
C         14.70803         8.48694         0.48928
C         13.51518        10.61287         0.75347
C         13.49710        12.03377         1.25911
C         14.71205         9.92555         0.59580
C         14.76354        12.79494         0.96502
C         13.49478        14.94207         1.06132
C         13.47994        16.35175         1.02010
C         14.75452        14.20903         1.05464
C         14.72852        17.11864         1.21487
C         13.52892        19.20398         0.62888
C         14.75883        18.55063         0.83746
C         15.98185         2.01236         0.50836
C         16.02152         3.51026         0.28743
C         17.19180         1.32244         0.64742
C         17.10914         4.20580         1.10755
C         15.94577         6.36857         0.56059
C         15.92402         7.76643         0.42508
C         17.21240         5.66619         0.67474
C         17.17360         8.50297         0.03046
C         15.98351        10.64608         0.59122
C         15.97011        12.10044         0.73522
C         17.17430         9.96164         0.41803
C         17.18588        12.82121         0.64238
C         15.99425        14.89818         1.06137
C         16.03745        16.36315         1.25022
C         17.20323        14.20208         0.87646
C         17.27717        17.08825         0.89602
C         15.99164        19.20118         0.69109
C         17.23905        18.50789         0.69549
C         18.44441         1.99182         0.79086
C         18.43216         3.44541         1.10099
C         19.65554         1.34067         0.58653
C         19.72085         4.18526         0.97568
C         18.40989         6.35334         0.59896
C         18.44742         7.78255         0.38201
C         19.71849         5.61114         0.46733
C         19.62992         8.49966         0.37506
C         18.43991        10.64912         0.33778
C         18.43753        12.14383         0.15301
C         19.62136         9.94009         0.23566
C         19.71461        12.83300         0.57526
C         18.49906        14.92802         1.16575
C         18.47654        16.38370         0.77926
C         19.74280        14.18871         0.73863
C         19.69231        17.05140         0.48588
C         18.45811        19.17978         0.44686
C         19.67847        18.48512         0.34020
C         20.92497         2.02182         0.52553
C         20.96956         3.44660         0.67243
C         22.12626         1.33562         0.28902
C         22.16881         4.14634         0.61397
C         20.93625         6.37182         0.96189
C         20.91447         7.84607         0.73702
C         22.25454         5.59125         1.07468
C         22.17678         8.56542         0.44763
C         20.90389        10.68541        -0.04760
C         20.98089        12.02472         0.68962
C         22.16995         9.89331         0.17754
C         22.23038        12.80036         0.32276
C         20.97371        14.93500         0.55294
C         20.91779        16.31713         0.36326
C         22.21195        14.20389         0.33396
C         22.09648        17.01863        -0.26278
C         20.91048        19.18430         0.15744
C         22.12329        18.51070        -0.02958
C         23.36162         2.02725         0.21004
C         23.38627         3.44698         0.37827
C         24.60047         1.34190         0.03339
C         24.63062         4.15207         0.33459
C         23.44648         6.31033         0.47886
C         23.38313         7.74754         0.01981
C         24.61785         5.61521         0.33503
C         24.69093         8.46886         0.20856
C         23.45752        10.60802        -0.18329
C         23.44365        12.10088         0.09833
C         24.66317         9.95204         0.49810
C         24.66322        12.79121         0.02595
C         23.43574        14.92686         0.13232
C         23.41689        16.33552        -0.00720
C         24.67806        14.22400         0.04029
C         24.61439        17.04376        -0.16401
C         23.33954        19.18391        -0.20705
C         24.57417        18.48435        -0.35475
C         25.80418         2.03112         0.01550
C         25.82246         3.44905         0.13312
C         27.12584         1.29799         0.02036
C         27.15447         4.16865         0.17527
C         25.86379         6.31344         0.01603
C         25.85009         7.77812         0.06904
C         27.03098         5.62766        -0.19062
C         27.14738         8.48849         0.16748
C         25.94920        10.66655         0.12923
C         25.93370        12.07558        -0.04409
C         27.15310         9.96063         0.05050
C         27.15002        12.77200        -0.20602
C         25.88802        14.94444        -0.12169
C         25.86948        16.34858        -0.19045
C         27.16845        14.24966        -0.52024
C         27.10727        17.06727        -0.36932
C         25.75789        19.14108        -0.67250
C         27.01261        18.46094        -0.69444
C         28.23962         2.06880        -0.65078
C         28.26049         3.45686        -0.57425
C         29.35436         1.37113        -1.18913
C         29.42333         4.18151        -0.98925
C         28.19042         6.36918        -0.81066
C         28.38373         7.73963        -0.20628
C         29.48079         5.60435        -0.92324
C         29.58650         8.48902        -0.61610
C         28.37363        10.63620        -0.20882
C         28.36762        12.05736        -0.27900
C         29.59051         9.90229        -0.49293
C         29.61835        12.77899        -0.30233
C         28.43418        14.99302        -0.10107
C         28.38366        16.42308        -0.18796
C         29.63093        14.19121        -0.00061
C         29.55155        17.30411        -0.21718
C         28.17170        19.17625        -1.03188
C         29.44282        18.62152        -0.78076
C         30.49953         2.04649        -1.55700
C         30.57289         3.46095        -1.43245
C         31.76520         4.18393        -1.71410
C         30.66918         6.30338        -1.18231
C         30.71522         7.77676        -1.07249
C         31.82258         5.55192        -1.55332
C         31.87664         8.52375        -1.37572
C         30.79055        10.61838        -0.73678
C         30.82811        12.04890        -0.45679
C         31.92048         9.89912        -1.18349
C         32.06575        12.69011        -0.23294
C         30.88935        14.69094         0.43098
C         30.82236        16.99556         0.32410
C         32.08550        13.98055         0.28256
C         31.94198        17.81403         0.18695
C         30.59745        19.43613        -0.96812
C         31.83522        19.03159        -0.50908
O          5.25095         8.20542         1.24901
O         30.97522        15.87911         1.15783
O         10.24498         9.07087        -1.25756
O         19.19765         3.86448         2.30068
O         28.03397         7.90679         1.20068
O         15.40445        16.82884         2.49555
O          4.71063        13.75753         1.11617
O          3.39129        16.70179        -2.51702
O         20.76068         7.24624         2.10460
O          8.58203        11.68417        -1.33986
O          4.43146        18.51159         1.27804
H          5.09442        17.92756         1.72656
O         16.38214         3.71832        -1.11414
H         15.68675         3.30354        -1.66718
O         10.57396         7.92050         2.19342
H         11.15943         7.29456         2.68788
O          6.09213        16.38573         1.38684
H          5.50987        15.64089         1.66138
O         17.15044         8.51650        -1.45531
H         16.35350         9.02055        -1.72818
O         27.18646        14.32049        -2.00382
H         26.40400        13.82350        -2.32575
O          8.75137         3.47660        -1.87751
H          8.05195         2.89027        -2.23763
O          5.86404         2.13712         1.73855
H          6.63456         2.61267         2.11695
O         18.41476        12.34033        -1.31170
H         19.27286        11.98479        -1.65444
O         13.47207        11.88570         2.73875
H         13.60230        12.78014         3.12128
O         18.60095        14.92775         2.63876
H         17.85113        15.45854         2.98632
O         27.58667         4.12750         1.58839
H         26.96564         4.68682         2.10333
O         23.64522        10.45399        -1.62551
H         22.86449        10.88393        -2.04786
O          6.31180        14.83129        -1.97632
H          6.94165        15.52245        -2.29689
O          7.62135        17.10376        -1.87960
H          8.44440        17.59247        -2.09331
O         19.94254         5.49399        -0.97609
H         19.09789         5.23406        -1.40239
O         16.63242         4.22126         2.47128
H         17.42198         4.35552         3.04457
O         24.46698        10.11732         1.92736
H         25.22374         9.69975         2.38952
O         23.19528         7.65559        -1.44427
H         23.42288         8.54965        -1.80680
O          5.03009         4.23656        -2.12822
H          5.85499         4.73077        -2.32933
O         22.55883         5.48634         2.49942
H         22.10346         6.24274         2.94135
O         12.09591         5.57894         2.45344
H         11.49870         4.83495         2.68645
O          9.46383        14.20612         2.43382
H         10.11269        13.59501         2.84208
O         20.89080        10.99766        -1.49138
H         20.64772        10.17134        -1.96388
O          2.69441         8.41660        -2.66830
H          2.70460         7.46589        -2.91079
O         21.09522        11.66849         2.09827
H         21.09634        12.49576         2.62446
O         27.79126         6.64985        -2.19962
H         27.70184         5.79191        -2.66584
O          7.22055        12.67563         1.92251
H          6.37835        13.10314         2.20121
O         27.51285         1.12381         1.40212
H         27.64938         2.02717         1.77336
O         21.87404        16.87151        -1.71848
H         22.58587        17.37463        -2.16913
H          0.25216         1.48432        -0.55792
H          0.20117         3.94650        -0.53936
H          2.40989         0.24402        -0.48342
H          0.20541         5.88794        -0.61571
H          0.20878         8.26447        -1.05894
H          0.30756        10.22774        -1.39729
H          0.30374        12.66135        -1.29697
H          0.29047        14.62890        -0.98211
H          0.36046        17.05339        -1.18968
H          1.78544        19.27301        -1.69575
H          4.85841         0.26205        -0.29329
H          3.73427        20.41390        -0.77588
H          7.38150         0.25769         0.29507
H          6.18433        20.36229         0.02443
H          9.85026         0.21863         0.07294
H          8.67007        20.35052         0.20906
H         12.30909         0.24440         0.10485
H         11.10624        20.29491         0.34104
H         14.74092         0.23954         0.41851
H         13.52684        20.28402         0.41774
H         17.18692         0.22162         0.60725
H         15.99639        20.27836         0.46543
H         19.64278         0.25968         0.37667
H         18.45165        20.27317         0.32563
H         22.11640         0.23990         0.18833
H         20.90434        20.28475         0.18994
H         24.59799         0.24478        -0.05333
H         23.35329        20.28461        -0.21281
H         27.01870         0.27825        -0.42643
H         25.74525        20.22277        -0.87189
H         29.31466         0.27405        -1.25540
H         28.09227        20.21611        -1.38028
H         31.37834         1.49370        -1.91953
H         32.65768         3.63209        -2.04344
H         32.77131         6.06872        -1.75190
H         32.77873         8.01894        -1.74706
H         32.85366        10.43233        -1.41234
H         33.00762        12.13733        -0.34473
H         33.02732        14.44328         0.60432
H         32.89082        17.51091         0.64736
H         30.47318        20.41922        -1.44337
H         32.71762        19.67319        -0.63597
