         621
 CSIRO Nanostructure Databank - Neutral Graphene Oxide Data Set
C          5.93723        31.39994         0.20609
C          5.84586        32.74701         0.11134
C          8.39827        27.25595         1.32359
C          8.36971        28.66038         1.16718
C          7.18435        29.33241         0.76135
C          8.27869        31.48553         1.07957
C          7.12616        30.72367         0.70336
C          8.16510        32.96136         1.18459
C          6.89807        33.62802         0.65252
C          8.18528        35.72286         0.28704
C          6.99726        35.02931         0.22490
C          8.23250        37.16166         0.10999
C         10.78239        23.05460         2.00522
C         10.76744        24.46341         2.10158
C          9.57945        25.18215         1.87486
C         10.73659        27.37427         2.07739
C          9.55302        26.60485         1.79266
C         10.76412        28.73472         1.82160
C          9.56261        29.41570         1.41483
C         10.64030        31.62726         1.86664
C          9.48595        30.83758         1.36409
C         10.64708        33.12063         1.66575
C          9.40946        33.75809         1.15261
C         10.69774        35.68600         0.25581
C          9.42216        35.04147         0.66643
C         10.66355        37.11520        -0.28510
C          9.39355        37.88350        -0.05379
C         10.31175        40.18608        -0.33117
C          9.38481        39.32296         0.20612
C         10.72261        41.51729         0.01815
C         13.37132        19.00072         1.22435
C         13.29411        20.07726         2.30674
C         12.04679        20.91593         2.06836
C         13.17888        23.06809         2.55629
C         11.96878        22.28966         2.21175
C         13.17453        24.54268         2.50042
C         11.99576        25.21421         2.38249
C         13.19092        27.43336         2.77203
C         11.87771        26.67631         2.78335
C         13.24356        28.80840         2.50105
C         12.08819        29.47191         1.75276
C         13.19671        31.77274         2.31239
C         11.92624        30.93337         2.16454
C         13.21586        33.01198         1.37509
C         11.94988        33.85126         1.53472
C         13.18124        35.73395         0.58495
C         11.97848        35.12993         0.77539
C         13.22344        36.98215        -0.20199
C         11.99117        37.77669        -0.37834
C         13.32237        39.87502        -0.60750
C         12.14330        39.05825        -0.82908
C         13.24730        41.25422        -0.36616
C         12.01589        42.02153        -0.16904
C         13.30407        44.16145        -0.03140
C         12.13579        43.46793        -0.05126
C         13.27540        45.67169         0.02403
C         15.64997        15.66523        -1.67657
C         15.68307        16.77279        -0.79669
C         14.48786        17.38741        -0.32636
C         15.80268        18.44180         1.38550
C         14.50642        18.29101         0.77143
C         15.81896        20.37085         2.32051
C         14.54391        20.93550         2.24699
C         15.68530        23.20591         2.05090
C         14.49987        22.38596         2.44729
C         15.73201        24.60880         2.50898
C         14.44438        25.20609         2.91227
C         15.72424        27.42715         3.20147
C         14.40575        26.71341         3.15035
C         15.70960        28.95629         3.03366
C         14.42945        29.55789         2.65823
C         15.70406        31.77075         2.60410
C         14.49793        30.95294         2.08710
C         15.67273        33.17325         1.96253
C         14.51668        33.78723         1.57668
C         15.70741        35.91168         0.85563
C         14.41183        35.30531         1.37750
C         15.74312        37.04615         0.11035
C         14.51608        37.68499        -0.42021
C         15.79486        39.82448        -0.53900
C         14.57043        39.16495        -0.54235
C         15.82618        41.24572        -0.35215
C         14.53919        41.91178        -0.04096
C         15.86828        44.12572        -0.09731
C         14.58713        43.44285         0.12119
C         15.84975        45.61939        -0.08173
C         14.57162        46.32461        -0.40050
C         15.75054        48.34478        -1.19886
C         14.54682        47.55310        -0.98662
C         15.74634        49.67317        -1.65767
C         18.04168        11.85748        -3.70951
C         18.05010        13.18446        -3.22819
C         16.84808        13.83917        -2.85387
C         18.09722        15.70713        -1.86629
C         16.84262        15.07022        -2.14830
C         18.17217        16.78005        -0.96349
C         16.96753        17.27709        -0.37015
C         18.26854        18.80987         1.19458
C         17.00277        18.18865         0.72651
C         18.27628        20.28113         1.80075
C         17.01440        21.02062         1.97747
C         18.24277        23.25106         1.73260
C         16.96650        22.46967         1.71421
C         18.21644        24.71175         2.08550
C         16.92655        25.34275         2.49901
C         18.18671        27.45334         2.80699
C         16.95811        26.72237         2.85076
C         18.22297        28.86339         2.73546
C         16.99082        29.62856         2.66871
C         18.26817        31.71470         2.43992
C         16.99134        30.98263         2.42031
C         18.26456        33.22355         2.23772
C         16.94716        33.95780         2.03534
C         18.25399        35.95776         1.01720
C         16.95202        35.33420         1.42894
C         18.23580        37.05917         0.04966
C         16.97816        37.52112        -0.60432
C         18.33599        39.74806        -0.64021
C         17.02737        39.06614        -0.99323
C         18.30966        41.17486        -0.28522
C         17.03476        41.95639        -0.28100
C         18.35431        44.15089        -0.21102
C         17.05425        43.39872        -0.14593
C         18.32990        45.58156        -0.76445
C         17.12278        46.38881        -0.25004
C         18.05253        48.67001        -0.61860
C         16.97051        47.80311        -0.71362
C         18.18673        49.87192        -1.32828
C         16.94569        50.44507        -1.77042
C         18.16763        52.52153        -2.20665
C         16.95126        51.80632        -2.16318
C         18.18803        53.94362        -2.40561
C         20.24698         7.71137        -5.31561
C         19.94681         9.08259        -5.23699
C         19.06385         9.79388        -4.42449
C         20.48099        11.91020        -4.07662
C         19.20770        11.20255        -4.14771
C         20.51938        13.20148        -3.43679
C         19.31337        13.84372        -3.08771
C         20.63303        15.86581        -2.22927
C         19.30353        15.20854        -2.54567
C         20.64559        16.87972        -1.15183
C         19.46650        17.28945        -0.53680
C         20.81202        19.06563         0.68682
C         19.52799        18.25951         0.57559
C         20.70428        20.50730         1.05694
C         19.50181        21.10876         1.63944
C         20.74644        23.22985         2.00902
C         19.51221        22.49228         1.80064
C         20.74394        24.61500         2.50941
C         19.48418        25.36836         2.51385
C         20.62765        27.45836         3.33181
C         19.43930        26.70886         2.79510
C         20.71996        28.86048         2.75015
C         19.50478        29.54733         2.57900
C         20.73840        31.62900         2.08516
C         19.52461        30.95213         2.30250
C         20.70351        33.04541         1.74782
C         19.54167        33.79604         1.74659
C         20.67654        35.58657         0.37405
C         19.56536        35.20059         1.26194
C         20.52125        36.67451        -0.44405
C         19.41913        37.59396        -0.43421
C         20.83230        39.73706        -0.72482
C         19.53248        39.03800        -0.71230
C         20.87481        41.14795        -0.68754
C         19.65312        41.89619        -0.30974
C         20.79545        44.03918        -1.10921
C         19.64396        43.39792        -0.38623
C         20.85283        45.50677        -1.13144
C         19.72168        46.23037        -0.72002
C         20.90416        48.34950        -1.29287
C         19.90691        47.61589        -0.59517
C         20.74299        49.74496        -1.62658
C         19.48040        50.47043        -1.61760
C         20.60739        52.54121        -2.51217
C         19.40569        51.81325        -2.06523
C         20.64635        54.00498        -2.33299
C         19.36984        54.70581        -2.36120
C         20.56637        56.86658        -2.25673
C         19.37079        56.12418        -2.39968
C         20.62360        58.25937        -2.37214
C         22.71096         5.08418        -6.23112
C         21.52566         5.79203        -6.01420
C         22.77542         7.90298        -5.71322
C         21.50641         7.18577        -5.74457
C         22.88491         9.26712        -5.33726
C         21.78540        10.15206        -5.25845
C         22.98868        11.83819        -3.97548
C         21.73164        11.31320        -4.44406
C         23.02004        13.10550        -3.31303
C         21.79872        13.81505        -3.09502
C         23.10494        15.64785        -2.09000
C         21.86995        15.08842        -2.47327
C         23.15855        17.09479        -1.64623
C         21.91359        17.51052        -0.87898
C         23.24150        19.39120        -0.01736
C         21.95411        18.67340        -0.15545
C         23.28532        20.69158         0.69880
C         21.98577        21.34547         1.05446
C         23.20467        23.05172         2.46828
C         21.95816        22.57610         1.83600
C         23.21399        24.45860         2.99880
C         21.92318        25.21585         2.92564
C         23.24729        27.40897         3.12699
C         21.93960        26.65907         3.29925
C         23.20821        28.82353         2.69147
C         21.98369        29.52319         2.56252
C         23.22977        31.59354         1.95155
C         21.98528        30.91728         2.16842
C         23.25794        32.96924         1.56940
C         21.99709        33.73152         1.48441
C         23.28536        35.65507         0.31986
C         22.00033        35.01255         0.68358
C         23.37102        37.00096        -0.02252
C         22.33110        37.69932        -0.72542
C         23.42010        39.79722        -0.46736
C         22.10741        39.06948        -0.66582
C         23.35768        41.29472        -0.48533
C         22.12727        41.87616        -0.75831
C         23.36472        44.03796        -1.32572
C         22.09868        43.28394        -1.19269
C         23.30799        45.40729        -1.55085
C         22.07685        46.17609        -1.43630
C         23.32570        48.32200        -1.83984
C         22.06126        47.57897        -1.63117
C         23.22789        49.65325        -2.50760
C         21.88966        50.33944        -2.39221
C         23.17220        52.57006        -2.74591
C         21.87515        51.80173        -2.70551
C         23.14105        53.98339        -2.26022
C         21.84590        54.65940        -2.20566
C         23.11083        56.86596        -2.00028
C         21.81761        56.11960        -1.97810
C         23.09167        58.32756        -2.15078
C         21.85330        59.00090        -2.29620
C         23.08350        61.10860        -2.25554
C         21.87884        60.41789        -2.37468
C         23.93184         5.71851        -6.07465
C         25.24492         7.63556        -5.39540
C         23.99967         7.11341        -5.76590
C         25.47101         9.04201        -5.11715
C         24.17589         9.92356        -5.07026
C         25.44319        11.65042        -3.80498
C         24.19833        11.15096        -4.26120
C         25.48967        12.92115        -3.15728
C         24.27290        13.66420        -2.92604
C         25.57572        15.53223        -1.90075
C         24.30991        14.94385        -2.29516
C         25.64637        16.69575        -1.14255
C         24.42770        17.44044        -0.87403
C         25.66513        18.95688         0.71728
C         24.45864        18.55470        -0.09336
C         25.70320        20.42225         1.13106
C         24.54277        21.12804         1.32976
C         25.78368        23.10006         2.26169
C         24.51320        22.35744         2.15782
C         25.81857        24.45253         2.63445
C         24.57356        25.15617         3.09628
C         25.86638        27.39372         2.96733
C         24.57627        26.66525         3.13753
C         25.80791        28.75457         2.33972
C         24.45431        29.44636         2.20127
C         25.70032        31.59068         1.84043
C         24.47591        30.90697         2.00399
C         25.71128        33.01578         1.63877
C         24.45795        33.64100         1.37851
C         25.58135        35.84259         1.43363
C         24.58305        34.97237         0.68204
C         25.25671        37.17089         1.60029
C         24.30911        37.82072         0.74147
C         25.93337        40.36514         0.84325
C         24.13919        39.18298         0.69245
C         25.83337        41.40711        -0.12663
C         24.61473        42.00481        -0.56133
C         25.84751        43.99611        -1.38399
C         24.63658        43.34166        -1.14731
C         25.85646        45.35819        -1.93423
C         24.54623        46.10292        -1.95206
C         25.86875        48.30802        -2.20274
C         24.60817        47.58655        -1.89212
C         25.81753        49.71476        -2.38728
C         24.55660        50.32559        -3.01362
C         25.77009        52.66668        -2.78074
C         24.48677        51.87545        -2.95859
C         25.64752        54.17228        -2.54286
C         24.31514        54.65660        -2.03691
C         25.56731        56.89421        -1.69836
C         24.39617        56.14079        -2.28053
C         25.50919        58.28022        -1.64525
C         24.31260        59.02355        -1.97383
C         24.28957        60.43478        -2.03341
C         26.61928         9.53937        -4.37881
C         27.87051        11.39589        -3.38304
C         26.65479        10.85531        -3.89656
C         27.93886        12.69994        -2.88482
C         26.74073        13.46461        -2.78709
C         28.13778        15.38732        -1.82541
C         26.80893        14.85772        -2.33370
C         28.11895        16.56275        -0.93643
C         26.91133        17.23288        -0.65771
C         28.16259        19.05214         0.43676
C         26.94866        18.43758         0.11914
C         28.20788        20.35142         1.12603
C         26.97240        21.02728         1.49213
C         28.25075        23.03266         2.21666
C         26.97667        22.35949         1.94687
C         28.24187        24.50296         2.21377
C         27.06519        25.17708         2.47926
C         28.26140        27.41802         2.19115
C         27.19845        26.62956         2.90625
C         28.37009        28.87359         2.55925
C         27.03602        29.56010         2.28329
C         28.19319        31.63478         1.63023
C         26.95930        30.88868         1.94076
C         28.18872        33.14209         1.57500
C         26.89411        33.82094         1.70351
C         28.09458        36.01107         1.86348
C         26.86028        35.25007         1.74980
C         28.18135        37.43223         1.68359
C         27.08279        38.33835         1.72939
C         28.34211        39.90827         0.26834
C         27.08084        39.57152         1.03994
C         28.37363        41.37307        -0.06459
C         27.12478        41.91760        -0.62869
C         28.40490        44.07550        -1.06599
C         27.14843        43.30831        -1.22549
C         28.42278        45.47368        -1.55732
C         27.13868        46.14696        -1.97821
C         28.27980        48.37940        -1.80142
C         27.08413        47.63443        -1.98153
C         28.21432        49.79923        -1.86333
C         27.00207        50.45125        -2.22071
C         28.13900        52.68034        -1.77904
C         27.02282        51.92962        -2.41110
C         27.98872        54.05920        -1.51547
C         26.81107        54.77951        -1.77123
C         26.73743        56.13957        -1.43433
C         29.18782        13.23069        -2.35687
C         30.57125        14.91635        -1.11431
C         29.29067        14.46485        -1.79154
C         30.59128        16.38513        -0.73515
C         29.36168        17.08661        -0.49707
C         30.64181        19.03790         0.22402
C         29.39319        18.39508         0.07197
C         30.64579        20.44647         0.63141
C         29.43349        20.99167         1.27486
C         30.78890        23.09881         1.75805
C         29.54787        22.30176         1.92749
C         30.77412        24.47553         1.71492
C         29.46444        25.19918         1.73432
C         30.72561        27.44042         1.57477
C         29.44499        26.73335         1.70619
C         30.76945        28.84112         1.61522
C         29.54200        29.58358         1.89800
C         30.66896        31.75452         1.35911
C         29.48626        30.93488         1.71679
C         30.69067        33.18871         1.76095
C         29.43367        33.89849         1.83119
C         30.59124        36.00469         2.37009
C         29.35248        35.28146         1.98671
C         30.63141        37.50176         2.21003
C         29.46620        38.12211         1.54774
C         30.77148        40.18546         1.02541
C         29.55429        39.38696         1.00179
C         30.72801        41.54024         0.54551
C         29.54483        42.11867        -0.02964
C         30.75882        44.31015        -0.40179
C         29.53587        43.51425        -0.50196
C         30.75448        45.70214        -0.75128
C         29.57418        46.32940        -1.21740
C         30.68973        48.51108        -1.17597
C         29.51391        47.72090        -1.42628
C         30.60096        49.93125        -1.25522
C         29.40291        50.57688        -1.55460
C         29.30716        51.99892        -1.45642
C         31.79897        17.01770        -0.50960
C         33.11959        19.02865         0.13798
C         31.86044        18.37676        -0.06739
C         33.21972        20.34433         0.59899
C         31.97241        21.12449         0.79704
C         33.28627        23.13340         1.35289
C         32.07617        22.32041         1.72036
C         33.22712        24.54254         1.29935
C         31.98189        25.21201         1.43497
C         33.20808        27.40766         0.96136
C         31.89874        26.65510         1.15532
C         33.21999        28.87130         1.19454
C         31.97693        29.55006         1.34433
C         33.21893        31.77200         1.48408
C         31.97532        31.02333         1.25007
C         33.18439        33.12741         1.75248
C         31.91517        33.82690         1.94224
C         33.20964        36.00158         2.34346
C         31.91502        35.23387         2.40299
C         33.23514        37.50624         2.20664
C         31.93992        38.27065         2.13746
C         33.24284        40.34228         1.55027
C         31.95960        39.61059         1.51662
C         33.21045        41.79300         1.17704
C         31.89945        42.40679         0.72358
C         33.16862        44.47324         0.10462
C         31.93520        43.73563         0.08627
C         33.15631        45.83273        -0.22838
C         31.94923        46.48296        -0.59331
C         31.89176        47.87770        -0.81599
C         34.44473        21.02359         0.81012
C         35.71340        23.16071         0.96981
C         34.48664        22.42193         1.06459
C         35.72969        24.54776         1.00065
C         34.46780        25.27947         1.08201
C         35.71187        27.43103         0.66874
C         34.47014        26.65331         1.01328
C         35.69821        28.80367         1.31647
C         34.42767        29.55378         1.26432
C         35.73727        31.66117         1.75758
C         34.49705        31.05357         1.13604
C         35.72999        33.13950         1.93704
C         34.43654        33.87542         1.85818
C         35.69803        35.95871         2.13100
C         34.44049        35.23566         2.01342
C         35.68389        37.33821         2.03851
C         34.47306        38.07156         1.49583
C         35.73477        40.30613         0.89447
C         34.57322        39.60225         1.54412
C         35.63017        41.65213         0.56309
C         34.45172        42.44529         0.71678
C         34.40762        43.77652         0.33416
C         36.96379        25.29246         0.94603
C         38.21628        27.42932         0.83432
C         37.00102        26.67341         0.88988
C         38.23666        28.81927         0.94634
C         37.02008        29.54186         1.37776
C         38.18914        31.74181         1.23295
C         37.02715        31.00749         1.44714
C         38.20902        33.19546         1.33946
C         37.01641        33.87633         1.79315
C         38.64267        36.29096         1.05229
C         36.94702        35.23161         2.10656
C         38.37231        37.55882         0.50118
C         37.40251        38.43906         1.04140
C         36.90954        39.60091         0.45494
C         39.39231        29.61264         0.71436
C         40.53702        31.75451         0.43356
C         39.38102        31.00380         0.82304
C         40.48538        33.11630         0.36142
C         39.34881        33.88850         0.79994
C         39.40968        35.27354         0.46959
O         21.09916        21.33898        -0.09448
O         32.39259        42.53370         2.12416
O         19.90376        16.23371        -3.43354
O         35.65798        32.19936         3.10349
O         21.03881        52.11155        -3.87073
O         19.11341        36.24014         2.17488
O         31.24233        31.49927         0.03327
O         31.15119        35.49125         3.61390
O         19.09523        41.41366         0.94530
O         23.77665        22.09360         3.42216
O         22.10047        34.99835         2.21113
O         29.20855        25.88297         0.47959
O         36.39390        28.90974         2.58309
O         18.35758        32.66816         3.57576
O         22.69596        27.07786         4.47334
O         23.92860        24.56455         4.26400
O         24.70470        56.05520        -3.73971
O         18.42128        19.07504         2.60474
O         25.64484        54.88163        -3.86777
O         16.84328        35.15168         2.88575
O         20.71339         9.90407        -6.10178
O         15.79334        28.32152         4.34576
O         25.97605        37.97120         2.50536
O         13.95625        36.89023        -1.53159
O         27.67709        15.70181        -3.18479
O          7.13158        33.43297         2.10150
O         24.77523        40.04854         1.59211
O         23.76136        52.43562        -4.09353
O         22.25130        49.54637        -3.58547
O         25.05878         9.93952        -6.21463
O         21.46367        36.88825        -1.45614
O         33.48020        36.89030         3.48469
O         32.38725        27.02656        -0.19275
O         16.04494        22.91563         0.65577
O         14.30807        25.75863         4.27016
O         28.16469        32.33788         0.32644
O         11.04835        39.68098        -1.42156
O         29.02486        22.38754         3.30312
O         19.07676        48.31493         0.26459
O         26.75263        52.33935        -3.80304
O         36.82900        38.06567         2.28781
O         11.24663        33.86063         2.80261
O         16.62213        46.13977         1.08441
O         31.13644        38.22447         3.36507
O         14.57314        42.54684         1.28042
O         18.28102        24.27469         0.67980
O         15.86955        19.00602         2.65235
O         25.30237        27.25739         4.29748
O         25.07656        28.70015         1.06179
O         12.47559        29.45385         0.38270
O         13.91052        22.65355         3.77984
O         27.22470        42.11190        -2.08794
O         24.13471        48.19013        -0.60843
O         10.98481        31.18568         3.24160
O         28.05134        45.60169        -2.98586
O         10.60059        35.96716        -1.18944
O         21.17410        43.41148        -2.36590
O         34.05807        40.14358         2.77516
O         25.09838        45.54000        -3.18170
O         31.20806        21.36531        -0.41482
O         19.29719        44.01629         0.89056
O         23.41811        20.63826        -0.79077
O         38.10223        35.98071         2.32184
O         22.50423        56.46903        -0.71335
O         20.50828        18.00982         1.63920
O         11.49838        26.61910         4.20125
H         12.27440        26.25209         4.68707
O         23.18339        17.87998        -2.87193
H         23.21905        18.82952        -2.62490
O         14.73697        30.73204         0.66929
H         13.96670        30.13495         0.35524
O         18.04248        45.47153        -2.19145
H         18.82601        45.09816        -2.65023
O         35.62611        27.70890        -0.76632
H         35.39312        26.87495        -1.22658
O         34.32798        37.69260         0.09393
H         35.09142        38.06108        -0.40234
O         28.63851        29.00532         3.99782
H         28.36368        28.15384         4.42940
O         12.16135        46.18933        -0.70220
H         12.23209        45.89716        -1.63372
O         16.92646        36.76211        -1.86474
H         15.97621        36.59494        -2.07335
O         27.66950        26.51360         4.30284
H         26.84859        26.48804         4.86041
O         24.24298        39.43860        -1.64298
H         23.80673        39.81028        -2.43964
O         25.15855        34.66517        -0.63354
H         25.99020        34.16079        -0.49376
O         15.68677        31.96804         4.02442
H         14.81869        32.36060         4.28331
O         31.70534        14.57394        -1.91522
H         31.61212        15.01879        -2.78253
O         28.29919        39.19291        -1.01252
H         27.68707        39.67378        -1.61151
O         24.67581        49.97004        -4.39679
H         24.06821        50.55822        -4.90129
O         16.97092        39.16741        -2.44166
H         17.12212        38.25338        -2.79467
O         13.20012        32.27425         3.65754
H         12.25210        32.42351         3.90955
O         25.51888        18.24079         1.99771
H         26.25906        18.51526         2.58043
O         34.69849        31.28779        -0.30511
H         33.89697        30.97074        -0.77660
O         32.29272        21.76050         3.05656
H         32.23230        22.48986         3.70858
O         20.28386        27.65944         4.73442
H         21.13567        27.76619         5.22121
O         13.17741        19.45047         3.61597
H         13.28024        20.15540         4.29063
O         14.20689        35.85690         2.70816
H         15.03487        35.67558         3.22016
O         13.14849        32.64285        -0.01628
H         13.87976        31.99683        -0.18994
H          5.11981        30.76799        -0.17244
H          4.97174        33.21298        -0.36796
H          7.50159        26.66492         1.08329
H          6.29028        28.73904         0.51801
H          6.09340        35.52659        -0.15888
H          7.28169        37.70689         0.21081
H          9.84443        22.53022         1.76708
H          8.65396        24.62561         1.66014
H          8.65155        39.69816         0.93638
H          9.97217        42.20706         0.43711
H         12.46244        18.87430         0.61138
H         11.12235        20.36778         1.82532
H         11.19760        44.04464        -0.06012
H         13.11185        45.96041         1.10174
H         14.68157        15.22082        -1.94777
H         13.52928        17.11194        -0.78997
H         13.57070        48.00767        -1.21715
H         14.79325        50.14043        -1.94557
H         17.08568        11.31560        -3.74797
H         15.89125        13.32784        -3.03585
H         16.00503        52.31810        -2.39051
H         17.22388        54.46693        -2.49233
H         19.49589         6.98632        -4.96679
H         18.23089         9.26636        -3.93656
H         18.41877        56.65819        -2.53859
H         19.69055        58.81699        -2.54552
H         22.67114         4.01239        -6.46890
H         20.56652         5.25558        -6.04868
H         23.08283        62.20644        -2.30833
H         20.93789        60.96978        -2.51054
H         24.86939         5.15208        -6.16476
H         26.08012         6.93483        -5.24084
H         26.40816        58.84488        -1.35408
H         25.22000        61.00236        -1.89099
H         27.48249         8.87654        -4.21958
H         28.78277        10.78300        -3.42798
H         28.82703        54.58898        -1.03682
H         27.61406        56.63257        -0.98676
H         30.06693        12.56839        -2.36335
H         30.67789        14.32930        -0.15661
H         31.49344        50.53191        -1.02496
H         30.16870        52.56003        -1.06430
H         32.73444        16.46880        -0.69342
H         34.03948        18.45564        -0.05433
H         34.08967        46.41287        -0.18584
H         32.79732        48.48397        -0.66655
H         35.38933        20.49118         0.62094
H         36.65686        22.60879         0.84249
H         36.50322        42.13491         0.09835
H         35.34555        44.29547         0.08521
H         37.90797        24.72804         0.99817
H         39.16510        26.89214         0.67974
H         38.82220        37.81341        -0.46866
H         37.49047        40.05259        -0.36360
H         40.31797        29.11669         0.38479
H         41.44292        31.21329         0.12538
H         41.35706        33.67013        -0.01699
H         40.12354        35.55948        -0.31880
