         349
 CSIRO Nanostructure Databank - Neutral Graphene Oxide Data Set
C          1.85257         2.43037        -3.21993
C          1.73148         3.78411        -2.80782
C          3.00730         1.72622        -2.98010
C          2.73666         4.41466        -2.09872
C          1.28497         6.45088        -1.53615
C          1.14119         7.70830        -1.09126
C          2.66990         5.91022        -1.84440
C          2.34562         8.52357        -0.76363
C          0.98666        10.69707        -0.24585
C          0.97052        12.01240         0.07865
C          2.25196         9.93791        -0.26342
C          2.17356        12.72677         0.48034
C          1.09683        14.91656         0.17418
C          1.20990        16.26365        -0.04726
C          2.22311        14.12395         0.56928
C          2.47279        16.94050         0.02791
C          2.58125        18.25388        -0.48788
C          4.09043         2.34072        -2.27828
C          3.93925         3.68772        -1.79753
C          5.28599         1.65017        -2.02632
C          4.98498         4.26873        -1.04493
C          3.64765         6.41073        -0.80060
C          3.53321         7.70838        -0.36918
C          4.68405         5.47198        -0.21034
C          4.51346         8.26405         0.53502
C          3.35583        10.54032         0.51951
C          3.32839        11.89190         0.77044
C          4.50821         9.70479         1.06819
C          4.59622        12.56411         1.14348
C          3.39005        14.90628         1.20248
C          3.62633        16.28633         0.54649
C          4.65551        14.04566         1.30979
C          4.85953        16.96829         0.57218
C          3.79217        18.90734        -0.48397
C          4.96765        18.32162         0.07498
C          6.36449         2.26948        -1.36122
C          6.22013         3.61228        -0.85629
C          7.57090         1.56809        -1.12086
C          7.33876         4.27191        -0.22858
C          5.91120         6.18393         0.30628
C          5.54434         7.42869         0.91555
C          7.20658         5.62663         0.29666
C          7.36194         8.52470         1.09104
C          5.83588        10.45343         0.78686
C          5.81343        11.82654         0.70963
C          7.12628         9.82430         0.63270
C          6.86744        12.55235        -0.10000
C          5.90364        14.72084         0.85750
C          6.02915        16.19422         1.19867
C          6.71653        14.03618         0.02982
C          7.37603        16.86818         0.98334
C          6.12970        19.16812        -0.01175
C          7.37325        19.01262         0.62709
C          8.66019         2.20708        -0.52879
C          8.57672         3.59527        -0.15407
C          9.86722         1.48732        -0.24518
C          9.78279         4.27670         0.24529
C          8.45625         6.35015         0.60465
C          8.49837         7.74363         0.77540
C          9.74966         5.67877         0.51184
C          9.76549         8.50359         0.47975
C          8.36243        10.66782         0.67503
C          8.34734        12.08615         0.16771
C          9.65853         9.95915         0.89097
C          9.65296        12.88217         0.16772
C          8.67603        15.19353        -0.15733
C          8.56198        16.55229         0.35531
C          9.72641        14.38304         0.14690
C          9.80352        17.32776         0.47285
C          8.62638        19.53792         0.29054
C          9.83816        18.77641         0.51556
C         10.98820         2.13883         0.20121
C         11.00756         3.56912         0.32721
C         12.20590         1.39966         0.66677
C         12.26669         4.25893         0.48385
C         10.98523         6.35665         0.73778
C         10.95592         7.82286         1.14853
C         12.22905         5.68848         0.66919
C         12.23299         8.59708         0.88237
C         10.94803        10.74100         0.95965
C         10.89758        12.22229         0.75581
C         12.23350        10.00150         0.85427
C         12.21505        12.94877         0.73387
C         11.04255        15.12711         0.02366
C         11.00855        16.60951         0.35267
C         12.24323        14.42929         0.59930
C         12.26652        17.26835         0.36562
C         11.09072        19.41566         0.52877
C         12.31609        18.69676         0.50411
C         13.49109         2.03301         0.11638
C         13.49717         3.56854         0.30046
C         14.66192         1.39457         0.83869
C         14.72004         4.33125         0.26926
C         13.47175         6.44228         0.76989
C         13.44653         7.86456         0.86310
C         14.71369         5.75627         0.60029
C         14.68663         8.63946         1.02909
C         13.45510        10.75518         0.68410
C         13.46337        12.18329         0.55893
C         14.69814        10.07957         0.72102
C         14.65756        12.88199         0.29337
C         13.51742        15.07791         0.25579
C         13.50252        16.53766         0.23576
C         14.65234        14.32031         0.10037
C         14.71814        17.20840         0.28465
C         13.57741        19.34596         0.58934
C         14.78800        18.62570         0.50486
C         15.93125         1.64858         0.41059
C         15.93374         3.78460        -0.17285
C         17.22450         1.34117         0.89670
C         17.28072         4.42225        -0.13341
C         15.95186         6.45909         0.62225
C         16.01008         7.88857         0.97508
C         17.18823         5.82805         0.37448
C         17.23117         8.66239         0.68762
C         15.92142        10.77396         0.50463
C         15.90490        12.17647         0.22374
C         17.18346        10.07558         0.53210
C         17.12313        12.86210        -0.10930
C         15.86023        15.04748        -0.44079
C         15.98806        16.38937         0.31973
C         17.15614        14.26751        -0.36814
C         17.16423        17.19596        -0.16634
C         16.06967        19.24862         0.66872
C         17.27509        18.56925         0.39294
C         18.38533         2.16762         0.74344
C         18.41332         3.58262         0.50656
C         19.63923         1.52864         0.98960
C         19.63306         4.26389         0.69259
C         18.39357         6.52059         0.52944
C         18.44556         7.94206         0.59028
C         19.61361         5.74161         0.76981
C         19.70310         8.63261         0.44383
C         18.38970        10.79230         0.25001
C         18.35200        12.13380        -0.12241
C         19.71366        10.13478         0.57319
C         19.55065        12.77818        -0.78705
C         18.37988        14.95805        -0.54671
C         18.38657        16.44926        -0.57989
C         19.61867        14.28373        -0.62121
C         19.67498        17.13429        -0.44145
C         18.55655        19.08690         0.60279
C         19.74664        18.36829         0.22029
C         20.86737         2.17777         1.03290
C         20.87284         3.60767         0.98302
C         22.07770         1.25552         1.22810
C         22.10361         4.38659         0.97738
C         20.91852         6.50913         0.70173
C         20.89547         7.94123         0.36427
C         22.13891         5.71793         0.60881
C         22.16164         8.60889         0.11133
C         20.91208        10.77410        -0.08583
C         20.85496        12.07532        -0.52277
C         22.13661        10.02165        -0.17869
C         22.07057        12.75193        -1.07979
C         20.86735        14.96297        -0.80845
C         20.85827        16.48931        -1.09276
C         22.06345        14.26503        -0.90553
C         22.18439        17.16711        -0.79285
C         21.03708        18.87458         0.54648
C         22.24202        18.27153         0.11251
C         23.39548         1.71879         0.64120
C         23.38940         3.92166         1.58216
C         24.58504         1.45971         1.26813
C         24.65715         4.38437         0.92176
C         23.37652         6.38794         0.07719
C         23.35535         7.89116         0.15712
C         24.67483         5.72311         0.49333
C         24.64182         8.58299        -0.10672
C         23.33999        10.68309        -0.57244
C         23.35681        12.04983        -0.74391
C         24.53023         9.84119        -0.96672
C         24.62996        12.79271        -0.72801
C         23.29304        14.93355        -1.34677
C         23.34877        16.48139        -1.35408
C         24.60585        14.25510        -1.05253
C         24.70415        17.08136        -1.32277
C         23.45643        18.80163         0.71730
C         24.71182        18.74286         0.12071
C         25.85913         2.15982         1.05323
C         25.85442         3.61670         0.89726
C         27.05767         1.46635         1.06400
C         27.07191         4.28251         0.61467
C         25.89415         6.34646         0.15137
C         25.91005         7.79558        -0.17144
C         27.10244         5.63935         0.22979
C         27.08096         8.32239        -0.95309
C         25.84062        10.57945        -1.02631
C         25.91967        12.01448        -0.80134
C         27.01959         9.80542        -1.38237
C         27.19283        12.74564        -1.22318
C         25.87051        14.94689        -1.48687
C         25.89462        16.41771        -1.25704
C         27.14986        14.19810        -1.61672
C         27.15310        17.05185        -0.83740
C         26.00008        18.82151         0.66603
C         27.16273        18.32189        -0.03536
C         28.33118         2.11873         0.99487
C         28.33644         3.58013         0.89981
C         29.55251         1.44269         1.02308
C         29.66396         4.29048         0.63098
C         28.33984         6.18227        -0.46368
C         28.37521         7.67184        -0.73630
C         29.65098         5.61949         0.00212
C         29.58717         8.30141        -0.99160
C         28.33354        10.47624        -1.68567
C         28.36331        11.97748        -1.72791
C         29.63126         9.71195        -1.49022
C         29.71459        12.73350        -1.58296
C         28.47840        14.99778        -1.64798
C         28.32424        16.33315        -0.91829
C         29.67250        14.15829        -1.18256
C         29.55083        16.95741        -0.35222
C         28.35637        18.97702         0.17473
C         29.61777        18.46463        -0.46493
C         30.78409         2.09578         0.78625
C         30.86636         3.45778         0.49930
C         32.06699         4.12328         0.09142
C         30.84723         6.21894        -0.35848
C         30.84006         7.61538        -0.79223
C         32.07199         5.45425        -0.24222
C         32.03459         8.34501        -0.91443
C         30.88498        10.48764        -1.29522
C         30.89622        11.91181        -1.26117
C         32.05495         9.73053        -1.08453
C         32.01804        12.59953        -0.71723
C         30.80069        14.72877        -0.62506
C         30.82637        16.16187        -0.22183
C         31.97486        13.93819        -0.40906
C         32.06666        16.92305        -0.13488
C         30.86264        19.02862         0.14826
C         32.02838        18.28353         0.19641
O          8.86395        10.35344         2.03979
O         23.16339        15.68275        -2.58813
O          4.70366        13.19249         2.49148
O         26.94113        12.48116         0.18517
O         17.47189        17.07801        -1.59069
O         15.98800         2.53720        -0.74769
O         26.75235         8.69638        -2.33464
O          6.40481         7.91393         1.90659
O         24.69854        18.46947        -1.27062
O         15.40450         8.25576         2.26187
O         29.07098         4.26393         1.98220
O         20.25176         6.23972         1.99548
O         24.63644        13.82425         0.34159
O          7.39310        18.07323         1.69242
O         29.01734         9.88154        -2.81717
O          2.66597         9.60998        -1.69491
O         25.59204         8.64198         1.00632
O          9.17447        12.20457        -1.04673
O         12.21986        13.86962         1.92762
O         26.33998        14.47419        -2.80600
O         23.38405         3.48919         2.73509
O          7.55861        14.73103        -0.83381
O         29.02950        12.50070        -2.87621
O         10.81818        11.66394         2.09929
O         29.91856        16.42986         0.94663
O         15.55743        15.29621        -1.83558
H         16.23639        15.93484        -2.17222
O         24.16864         9.34792        -2.29959
H         25.01019         9.05771        -2.73480
O         28.76685        15.31919        -3.02583
H         27.91606        15.26472        -3.52255
O         22.24293         1.01006         2.62616
H         22.54442         1.85718         3.03842
O         28.18282         5.60182        -1.82931
H         28.79325         6.08196        -2.43051
O          5.82513        16.24624         2.63535
H          6.03056        17.16277         2.92474
O         29.62136        18.79549        -1.89116
H         29.37984        19.73993        -1.98682
O         16.26902        16.09524         1.71373
H         15.48270        15.65041         2.09673
O         13.50072         1.73746        -1.29657
H         14.38725         1.98870        -1.64168
O         23.31337         6.11149        -1.38770
H         23.49867         6.94857        -1.87052
O         10.71782         7.86334         2.57586
H         11.54581         7.61587         3.03715
O         11.33021        15.06481        -1.41937
H         10.61969        15.54179        -1.89824
O          3.07351         6.51967        -3.11443
H          3.02876         7.49484        -3.00392
O         19.90590        10.38563         2.01012
H         19.25808         9.83574         2.50076
O          4.01590         4.92357         1.00006
H          4.64798         4.30498         1.42525
O         19.29814        12.56227        -2.24224
H         18.54618        13.14196        -2.49540
O         20.60979        16.56656        -2.53182
H         21.40831        16.19013        -2.97724
O         21.99216        12.62031        -2.55246
H         21.02855        12.63149        -2.78945
O          9.98995         8.52598        -0.95088
H         10.06121         7.59918        -1.26462
O         17.70860         4.52890        -1.53734
H         17.60575         3.63450        -1.93116
O         23.31014         2.32897        -0.57479
H         24.20294         2.59482        -0.87764
O          6.60045        12.18146        -1.47409
H          7.41334        12.39402        -1.98823
O          2.95304        15.19829         2.55319
H          3.35779        14.51468         3.13607
O         12.21794         1.41792         2.10548
H         12.08681         2.34242         2.40219
O          4.31155         9.65179         2.49959
H          5.06334         9.13841         2.87402
H          1.02294         1.96295        -3.76865
H          0.82457         4.33604        -3.09205
H          3.11829         0.69100        -3.33344
H          0.39626         5.84093        -1.75727
H          0.14062         8.13934        -0.93641
H          0.06162        10.20349        -0.57756
H          0.01332        12.54999         0.03702
H          0.13035        14.43429        -0.02746
H          0.33650        16.83530        -0.39360
H          1.68813        18.74443        -0.90044
H          5.39334         0.60928        -2.36601
H          3.85925        19.92789        -0.88816
H          7.65637         0.51561        -1.42837
H          6.03392        20.02781        -0.69417
H          9.88105         0.39610        -0.38344
H          8.69339        20.45950        -0.30733
H         12.16539         0.33051         0.35037
H         11.12495        20.51489         0.55289
H         14.47759         0.87254         1.78737
H         13.60721        20.43683         0.72915
H         17.37788         0.36343         1.37920
H         16.10832        20.29941         0.99388
H         19.62728         0.43299         1.09755
H         18.67482        20.08029         1.06066
H         21.81126         0.26941         0.75739
H         21.10211        19.77596         1.17302
H         24.52159         0.83634         2.17497
H         23.35957        19.23362         1.72441
H         27.04031         0.36997         1.15172
H         26.15295        19.30245         1.64399
H         29.55391         0.35199         1.16401
H         28.39009        19.85979         0.83080
H         31.70259         1.49089         0.75727
H         33.00691         3.55202         0.07144
H         33.02501         5.92328        -0.52047
H         32.99742         7.83492        -0.78142
H         33.03269        10.22984        -1.06415
H         32.93468        12.04223        -0.48446
H         32.85811        14.40868         0.04287
H         33.03464        16.42759        -0.29074
H         30.89399        20.10422         0.37965
H         32.97306        18.78819         0.45095
