         256
 CSIRO Nanostructure Databank - Neutral Graphene Oxide Data Set
C         30.35942        31.67814         0.18514
C         30.51207        32.78244         0.71170
C         30.80391        35.85900         1.47107
C         30.63326        37.11347         1.37036
C         30.84683        40.34631         2.18942
C         30.98647        41.44669         2.78315
C         32.56486        29.03369        -1.31067
C         31.47162        29.53230        -0.97395
C         32.82153        31.42441        -0.08719
C         31.40796        30.69866        -0.11085
C         32.85015        32.89802         0.26105
C         31.76838        33.43171         1.25440
C         33.11429        35.65482         1.36155
C         31.80714        34.92725         1.29509
C         33.09669        37.17192         1.42166
C         31.80380        37.97319         1.31521
C         33.25036        39.96229         2.27519
C         31.89575        39.46201         1.73676
C         33.38141        41.38268         2.84499
C         32.11832        42.21976         3.05895
C         33.59863        44.04665         3.38603
C         32.44266        43.54263         3.37948
C         35.17227        27.40994        -1.73558
C         35.04428        28.88627        -2.09948
C         33.88710        29.57576        -1.41471
C         35.23175        31.60503        -0.95867
C         33.96727        30.81870        -0.80975
C         35.33237        33.03185        -0.51793
C         34.10929        33.69761         0.06571
C         35.54363        35.71673         0.46330
C         34.38950        34.87298         1.00271
C         35.53263        37.19099         0.60808
C         34.32589        37.95009         1.03741
C         35.74843        40.01004         1.60663
C         34.49714        39.26239         1.77143
C         35.93412        41.33925         2.16897
C         34.74772        42.07119         2.76326
C         35.97937        44.26908         2.57135
C         34.84134        43.57074         2.90273
C         36.30100        45.64597         2.74418
C         37.61186        27.13922        -1.62432
C         36.19605        26.80228        -1.42001
C         37.69335        28.65589        -1.88192
C         36.40756        29.41714        -1.58885
C         37.80853        31.48824        -0.78133
C         36.48689        30.78401        -0.97411
C         37.85409        32.97414        -0.68824
C         36.66572        33.66486        -0.31733
C         37.95627        35.80238        -0.23240
C         36.68171        35.06020        -0.00691
C         37.85688        37.29660        -0.28590
C         36.85209        37.89533         0.65497
C         37.97228        40.18087         0.29795
C         36.93707        39.33524         1.04265
C         38.23038        41.56137         0.88662
C         37.19691        42.14010         1.76527
C         38.36052        44.41659         1.45802
C         37.11692        43.63877         1.81022
C         38.58474        45.81824         2.03573
C         37.34290        46.31286         2.64723
C         39.12645        25.15764         1.20261
C         38.63209        25.63490         0.11715
C         40.11803        27.07707        -1.07233
C         38.73520        26.49614        -0.93981
C         40.23923        28.55264        -1.42458
C         39.03264        29.41080        -1.85656
C         40.30392        31.52281        -1.35598
C         39.06376        30.74955        -1.12920
C         40.28789        32.90622        -1.24501
C         39.08205        33.62901        -0.93144
C         40.23341        35.89440        -1.58375
C         39.17723        35.10913        -0.76931
C         40.24940        37.37652        -1.20562
C         39.07339        38.06638        -0.61113
C         40.34863        40.27151        -0.58908
C         39.29772        39.40861         0.08835
C         40.37152        41.65429        -0.31733
C         39.33596        42.28656         0.45270
C         40.42629        44.58220         0.04203
C         39.64227        43.67637         1.01790
C         40.49989        46.05620         0.30591
C         39.71096        46.63153         1.49252
C         40.92440        48.67483         1.12012
C         39.94289        48.07502         1.61442
C         41.38947        25.26283         2.39862
C         40.50709        24.96361         1.33723
C         42.27105        27.32581         0.24437
C         41.22440        26.53081        -0.24080
C         42.46711        28.69809        -0.28666
C         41.45476        29.29809        -0.98754
C         42.70586        31.46949        -0.83854
C         41.58765        30.70975        -1.56045
C         42.82423        32.86120        -1.47703
C         41.54895        33.66851        -1.54560
C         42.83690        35.76744        -1.65155
C         41.60064        35.16940        -1.53976
C         43.04973        37.19081        -1.91076
C         41.15783        38.25994        -1.73573
C         42.72627        40.23068        -1.40695
C         41.36824        39.61491        -1.30454
C         42.76017        41.72324        -1.18025
C         41.46713        42.45234        -0.93669
C         42.79731        44.69511        -1.04150
C         41.52134        43.94332        -0.78464
C         42.77024        46.14435        -0.92376
C         41.60077        46.94032        -0.35649
C         43.34272        48.04685         1.21094
C         42.10106        48.00286         0.65514
C         42.46387        25.89494         2.11604
C         44.27954        27.62849         1.78476
C         43.06090        26.91271         1.38896
C         44.72088        28.88097         0.98389
C         43.92828        29.21112        -0.31158
C         45.07555        31.55848        -0.02428
C         44.06603        30.71575        -0.83827
C         45.26688        32.90573        -0.60039
C         44.14752        33.55538        -1.36044
C         45.38787        35.83038        -1.30125
C         44.13674        35.04305        -1.59522
C         45.31487        37.32844        -1.01310
C         44.04758        37.98674        -1.42398
C         45.27773        40.27110        -1.74273
C         44.00706        39.46419        -1.77448
C         45.20890        41.78614        -1.87407
C         43.92234        42.53365        -1.67531
C         45.11413        44.72446        -2.01957
C         43.91476        44.01391        -1.49944
C         45.03324        46.25616        -1.94541
C         43.82805        46.89456        -1.40234
C         44.49652        47.98888         1.71684
C         45.75509        28.38532         3.41559
C         44.74933        27.67956         3.18153
C         46.28225        29.58480         2.85485
C         45.65864        29.85231         1.63518
C         47.17979        31.84660         1.27571
C         45.90729        31.11710         0.95979
C         47.41162        33.20267         0.74024
C         46.17673        33.86815         0.19673
C         47.78237        35.48016        -0.72496
C         46.48161        35.07132        -0.61732
C         47.89535        37.67174        -1.11479
C         46.53432        38.20737        -0.91677
C         47.80998        40.40809        -1.06750
C         46.44445        39.74422        -0.89297
C         47.82916        41.82234        -1.53057
C         46.53105        42.51650        -1.89235
C         47.72374        44.82041        -1.56074
C         46.47059        44.03602        -1.99769
C         47.35150        46.21458        -1.35058
C         46.35720        46.86529        -1.69393
C         47.65213        30.84573         4.68812
C         47.57796        30.20429         3.32372
C         49.18880        32.28708         2.85271
C         48.06283        31.35943         2.39812
C         49.63000        33.42735         1.89246
C         48.64632        33.87296         0.85454
C         50.05209        35.99337         0.27510
C         48.83446        35.12581         0.17046
C         50.20298        37.44826        -0.28711
C         49.01125        38.29778        -0.64555
C         50.20466        40.52610        -0.42202
C         48.97216        39.77109        -0.67610
C         50.21802        41.94334        -0.52713
C         49.12026        42.65704        -1.32887
C         50.06183        44.70836        -0.47626
C         48.72075        44.09133        -0.69364
C         48.60458        31.56022         5.05585
C         50.38023        33.42783         4.60451
C         49.45569        32.45037         4.33603
C         50.83502        34.25812         3.72672
C         50.50627        34.52196         2.42743
C         51.82231        36.67814         1.91416
C         50.97156        35.56688         1.51627
C         52.12073        37.66914         1.23976
C         51.38847        38.33217         0.16111
C         52.34002        40.67397         0.49749
C         51.32587        39.80554         0.09206
C         52.38644        41.93822         0.44510
C         51.34429        42.71557        -0.07990
C         51.09567        44.13653        -0.10481
O         38.60592        30.79126         0.25463
O         43.05446        40.84633        -0.06669
O         40.50828        27.50575        -2.41513
O         39.59831        45.51588        -0.70629
O         45.06709        35.45561        -2.66105
O         32.30159        30.60072         1.01719
O         39.78218        35.89200        -3.01004
O         37.74239        27.68762        -2.96271
O         34.63842        37.90559        -0.36941
O         50.30368        32.13992         1.93786
O         33.95203        39.04925         3.14876
O         37.41888        38.23965         1.95452
O         44.88637        45.58127        -3.19720
O         35.16510        32.66371        -1.95063
O         45.27626        32.90549        -2.03122
O         47.50224        44.47778        -2.93379
O         51.24597        35.16607         0.16492
O         42.18719        33.09359        -2.75223
O         37.94120        37.97036        -1.56788
O         39.08249        35.44633         0.65920
O         47.38085        41.92453        -2.92754
O         31.88670        39.04311         0.36033
O         33.01047        33.81460        -0.86539
O         41.00805        43.32356        -2.01885
O         37.29037        44.28396         0.49418
O         34.27355        41.42275         3.98427
O         42.06976        37.80338        -2.68699
O         48.06509        36.43147        -1.70205
O         48.31479        30.90999         1.05423
O         36.34245        29.60796        -0.13424
O         45.35324        27.57135         0.83124
O         33.26720        36.40073         2.63873
O         37.11546        41.49167         3.06731
O         41.17673        25.16348         0.02511
O         44.37778        42.15993        -3.01298
O         44.57968        30.68123        -2.11576
O         39.82560        45.92363         2.75056
O         44.81467        39.66001        -2.97854
O         51.40924        37.63700        -1.09485
O         45.88255        37.63990         0.30694
O         32.01012        32.92387         2.55002
H         32.00497        31.93883         2.49876
O         34.85276        34.25749         2.22662
H         34.72784        34.90633         2.95622
O         44.49493        28.37403        -1.32653
H         44.68504        28.97021        -2.10256
O         43.82574        48.23252        -1.35346
H         44.69692        48.58219        -1.63690
O         48.06300        43.89866         0.55353
H         48.72667        43.70698         1.24877
O         37.34078        40.44390        -0.97500
H         37.98147        40.88525        -1.57181
O         42.36000        31.63457         0.55402
H         41.41677        31.89787         0.63312
O         40.51659        43.47234         2.13946
H         40.15484        42.77088         2.72081
O         40.95703        47.66452        -1.40951
H         40.37623        47.03491        -1.89340
O         39.60372        34.52090        -3.41938
H         40.43394        34.31669        -3.91982
O         34.97709        29.03928        -3.49806
H         34.11625        28.70777        -3.82664
O         41.91523        30.58151        -2.94353
H         41.11478        30.24987        -3.41386
O         49.70570        42.90111        -2.59899
H         48.98450        42.89725        -3.27505
O         46.06938        40.16295         0.44923
H         45.68256        39.37805         0.90875
O         48.55466        29.17008         3.28095
H         48.78062        28.99574         2.34184
O         45.30852        34.22398         1.33004
H         45.72051        34.97291         1.81155
O         39.87797        39.12348         1.37913
H         39.20340        38.64219         1.92169
O         39.27549        29.76631        -3.24245
H         39.19043        28.93453        -3.76571
