         324
 CSIRO Nanostructure Databank - Neutral Graphene Oxide Data Set
C          1.22986         3.41755         1.29373
C          0.02467         4.10033         1.35507
C          1.16109         6.24264         1.01375
C         -0.01618         5.49450         1.22272
C          1.14821         7.69000         0.88722
C         -0.05941         8.41865         0.99209
C          1.09882        10.53566         0.61459
C         -0.08485         9.79234         0.86161
C          1.05683        11.97422         0.46672
C         -0.15816        12.70151         0.51696
C          1.00419        14.80672         0.14154
C         -0.18983        14.07210         0.32404
C          0.96597        16.25237        -0.25163
C         -0.19018        17.12588         0.03237
C          1.08716        19.23592        -0.28913
C         -0.09738        18.48823         0.05871
C          1.16756        20.64898        -0.24574
C          0.01012        21.43525         0.06256
C          1.26195        23.53841        -0.02667
C          0.06253        22.80131         0.18873
C          1.29672        24.95431         0.16694
C          0.27915        25.67320         0.82070
C          1.51881        27.78277         0.69754
C          0.35975        27.05929         1.01301
C          1.60785        29.21580         0.89716
C          3.68004         3.44175         1.03203
C          2.44464         4.12704         1.08803
C          3.62160         6.27139         0.71564
C          2.40305         5.55152         0.93398
C          3.59719         7.70087         0.54452
C          2.36094         8.40678         0.64869
C          3.54330        10.56982         0.23198
C          2.33324         9.83850         0.50882
C          3.50485        11.96961         0.11714
C          2.27133        12.68975         0.25043
C          3.50482        14.86610         0.22708
C          2.22519        14.11618         0.13028
C          3.51132        16.35144         0.03483
C          2.25954        16.96869        -0.50024
C          3.59923        19.18287        -0.81210
C          2.26487        18.46305        -0.69499
C          3.61829        20.64379        -0.65116
C          2.42191        21.35009        -0.45747
C          3.64802        23.48421        -0.66587
C          2.45464        22.81059        -0.39778
C          3.69048        24.94449        -0.81261
C          2.44518        25.71931        -0.34838
C          3.86553        27.74440        -0.05278
C          2.63812        27.10703         0.10575
C          4.06714        29.10205         0.58119
C          2.78448        29.86743         0.75351
C          6.13369         3.42601         0.75335
C          4.89397         4.13707         0.85574
C          6.09504         6.31150         0.59874
C          4.84317         5.55941         0.71610
C          6.01204         7.69639         0.11243
C          4.80741         8.41101         0.20757
C          6.00212        10.56651        -0.12421
C          4.79238         9.85062         0.04709
C          6.02901        11.98532        -0.15412
C          4.72972        12.71190        -0.37273
C          6.06794        14.88704        -0.10543
C          4.80248        14.13779         0.12321
C          6.08376        16.29000        -0.13592
C          4.82804        17.06637        -0.11911
C          6.06927        19.14633        -0.63170
C          4.86253        18.45785        -0.60460
C          6.08160        20.58056        -0.88016
C          4.88853        21.29038        -0.83336
C          6.14580        23.49029        -1.32944
C          4.86215        22.74821        -1.06168
C          6.19048        24.94076        -1.01321
C          4.99084        25.64940        -0.80357
C          6.25018        27.75571        -0.74160
C          5.02451        27.05089        -0.54964
C          6.27548        29.21789        -0.60218
C          5.15533        29.87751        -0.08485
C          8.57666         3.38036         0.33810
C          7.36284         4.06384         0.52707
C          8.59852         6.19486        -0.03460
C          7.39576         5.54506         0.52354
C          8.50277         7.57751        -0.52306
C          7.20292         8.31689        -0.45481
C          8.55149        10.51183        -0.33979
C          7.24197         9.84714        -0.48496
C          8.50639        11.94845         0.00382
C          7.23839        12.70915        -0.18173
C          8.54131        14.87005        -0.36595
C          7.26603        14.13133        -0.20702
C          8.58196        16.33470        -0.11330
C          7.31080        17.03860        -0.17002
C          8.50471        19.20146        -0.05068
C          7.29003        18.42942        -0.34511
C          8.63739        20.54736        -0.69538
C          7.38748        21.24283        -1.17251
C          8.68841        23.46186        -0.97182
C          7.47367        22.74222        -1.54534
C          8.69704        24.88285        -1.01254
C          7.43419        25.61698        -1.02607
C          8.67989        27.74131        -1.33626
C          7.42730        27.03626        -1.00894
C          8.68340        29.28917        -1.29217
C          7.45198        29.94046        -0.86957
C         11.03371         3.39920         0.18168
C          9.82429         4.07059         0.18151
C         11.04797         6.23954        -0.25915
C          9.79904         5.52111        -0.04160
C         11.04873         7.64973        -0.38741
C          9.79395         8.37551        -0.63222
C         11.04581        10.52345        -0.30399
C          9.76088         9.84317        -0.43091
C         11.07744        11.93727        -0.15073
C          9.81478        12.67171         0.05855
C         11.08953        14.83648         0.00007
C          9.83814        14.12632        -0.25761
C         11.13150        16.33253        -0.22880
C          9.78085        16.99435         0.05540
C         11.06155        19.21937         0.32627
C          9.77226        18.44788         0.30449
C         11.05138        20.63069        -0.14613
C          9.91268        21.30070        -0.52383
C         11.10708        23.48259        -0.65961
C          9.89086        22.75535        -0.73206
C         11.14539        24.88381        -0.79635
C          9.92363        25.60321        -0.92208
C         11.12722        27.77543        -1.00213
C          9.95002        27.04697        -1.08999
C         11.14959        29.22818        -1.04808
C          9.97355        29.94552        -1.09155
C         13.52281         3.37779        -0.22704
C         12.33913         4.13299         0.29283
C         13.47869         6.23806        -0.50670
C         12.28036         5.55169        -0.21601
C         13.46486         7.65082        -0.61041
C         12.26281         8.36609        -0.44807
C         13.52215        10.51784        -0.41211
C         12.27013         9.81617        -0.40937
C         13.52469        11.94816        -0.26043
C         12.28129        12.65606        -0.11863
C         13.52686        14.80134         0.05960
C         12.26900        14.10407         0.07573
C         13.62629        16.22577         0.50580
C         12.24866        16.93668         0.64903
C         13.64646        19.12535         0.02125
C         12.35195        18.47384         0.52384
C         13.63235        20.64101         0.21413
C         12.33453        21.36411         0.00566
C         13.68793        23.45041        -0.62417
C         12.37349        22.72818        -0.59229
C         13.62375        24.93057        -0.64981
C         12.42196        25.58723        -0.75113
C         13.64871        27.87030        -0.60604
C         12.37768        27.07232        -0.65134
C         13.62043        29.31790        -0.89961
C         12.42229        29.94288        -1.02384
C         15.90837         3.29075        -0.72776
C         14.71030         4.02703        -0.57198
C         15.90487         6.16925        -0.86207
C         14.72532         5.49567        -0.66705
C         15.95747         7.63639        -1.05255
C         14.67986         8.40809        -0.95836
C         16.01392        10.52528        -0.73380
C         14.74845         9.85725        -0.68747
C         16.05794        11.96542        -0.32747
C         14.73236        12.66325        -0.35377
C         16.56234        15.07941         0.08213
C         14.61829        14.07388        -0.39170
C         16.31609        16.37495         0.61972
C         14.94869        16.99551         0.60985
C         16.08487        19.23399         0.71202
C         14.91756        18.48142         0.54424
C         16.12857        20.67610         0.50439
C         14.92698        21.37962         0.07335
C         16.15579        23.52131        -0.01931
C         14.91437        22.73712        -0.16072
C         16.01587        25.00444         0.14417
C         14.91782        25.67186        -0.62696
C         16.16912        27.91522        -0.26732
C         14.95675        27.15737        -0.69324
C         16.13203        29.36010        -0.37805
C         14.93745        30.05622        -1.02014
C         18.48564         3.30175        -0.78295
C         17.18116         3.92236        -1.02713
C         18.41344         6.19500        -0.67442
C         17.17160         5.45673        -1.10672
C         18.40261         7.64479        -1.10571
C         17.24325         8.37536        -1.00227
C         18.51673        10.52162        -0.96145
C         17.22902         9.82961        -0.93438
C         18.64144        11.91535        -0.63041
C         17.42444        12.66002        -0.15122
C         18.67746        14.49195         1.08977
C         17.56920        14.12473         0.23981
C         18.50353        16.55110         1.76123
C         17.34004        17.16110         1.21934
C         18.50895        19.31540         1.39388
C         17.30627        18.58690         1.13930
C         18.51569        20.73785         1.22696
C         17.30896        21.37690         0.77206
C         18.43511        23.61172         1.21713
C         17.37300        22.82842         0.50837
C         18.36745        25.12467         1.24249
C         17.14364        25.82467         0.69047
C         18.52076        27.94635         0.49272
C         17.25013        27.24869         0.27602
C         18.45651        29.51079         0.44124
C         17.16716        30.11572         0.10468
C         19.66038         4.03204        -0.86466
C         20.89155         6.20518        -0.95721
C         19.68565         5.44170        -0.94806
C         20.89327         7.55817        -1.15063
C         19.65348         8.28438        -1.62317
C         20.86682        10.43595        -1.64579
C         19.66788         9.77921        -1.36485
C         20.99752        11.78421        -1.35565
C         19.93718        12.48949        -0.76494
C         21.06807        15.15905         1.38283
C         20.01207        14.41147         0.74912
C         20.93916        16.40443         1.95927
C         19.73470        17.19566         1.88223
C         20.91859        19.38844         1.84144
C         19.73424        18.63448         1.71324
C         20.91110        20.76831         1.70929
C         19.72551        21.47774         1.41834
C         20.83488        23.72240         1.67640
C         19.73379        22.93536         1.39775
C         20.78761        25.14775         1.65610
C         19.63795        25.86661         1.38929
C         20.62583        28.12535         1.74997
C         19.62718        27.31884         1.24535
C         20.52009        29.55465         1.77385
C         19.45999        30.22198         1.23484
O         11.72863        19.11140         1.64763
O          5.24901        23.16842        -2.44606
O         14.27028        16.38570         1.82549
O          4.23247        14.41138         1.43173
O          1.57934        16.33149        -1.61255
O          2.82383        18.78507        -2.01113
O          2.72158        25.49052        -1.76585
O         18.01194        24.32319         2.42142
O         12.93757        27.54513         0.64385
O         15.67104        14.77527        -0.96043
O         15.21476        26.34397        -1.89830
O          8.20557        20.44085        -2.09223
O         15.96564        25.50241         1.51768
O          9.14002         7.81111        -1.81918
O         20.37720        13.77019        -0.42676
O          9.28215        14.46571        -1.59894
O         17.21796         4.71132        -2.31217
O          6.98556         9.06168        -1.69568
O         13.14037        22.80502        -1.84367
O          8.88957        18.99834         1.34214
O          9.13841        12.29620         1.30575
O         15.22363         8.02760        -2.28338
O         18.37053        15.23519         2.25215
O         17.25488        23.15624        -0.92812
O          8.59911        28.52613        -2.55865
O         18.99541        28.70524        -0.65492
O          6.98595         6.16103         1.80176
O         16.74892        12.02336         0.99471
O         12.91505        21.22726         1.34912
O          4.04683        17.05732         1.18623
O         11.44135        16.55986        -1.62279
H         10.79741        16.03655        -2.15261
O          4.57321        12.84306        -1.82768
H          4.61918        11.94509        -2.21983
O          7.73109        22.81105        -2.96582
H          6.87543        22.64305        -3.42303
O         18.30091         6.24578         0.79440
H         19.10676         6.68562         1.14006
O          4.55443        28.82909         1.96654
H          3.80470        28.43105         2.45896
O         11.78021        16.63322         1.97075
H         12.50098        16.85779         2.60151
O         12.58150         4.27736         1.76032
H         11.79683         4.73091         2.13749
O         14.80187        31.39141        -0.53153
H         14.48199        31.34867         0.39278
O         13.63826        18.89953        -1.41940
H         14.42547        19.33292        -1.81201
O         19.62870         8.10167        -3.08472
H         18.76981         8.44364        -3.41304
H          1.25810         2.32448         1.40644
H         -0.91142         3.54727         1.51463
H         -0.99113         5.99518         1.28555
H         -1.00488         7.89455         1.18254
H         -1.04957        10.30722         0.95523
H         -1.10948        12.17823         0.67895
H         -1.15732        14.59255         0.32539
H         -1.13957        16.65816         0.33102
H         -0.99971        19.04628         0.34578
H         -0.95775        20.93741         0.20437
H         -0.86362        23.34177         0.42685
H         -0.61400        25.14845         1.18664
H         -0.48778        27.58516         1.47557
H          0.68453        29.76557         1.13437
H          3.69242         2.34653         1.13344
H          2.84104        30.95749         0.89112
H          6.10601         2.32768         0.81153
H          5.16902        30.97352         0.01330
H          8.58653         2.28127         0.38716
H          7.49096        31.00775        -0.60258
H         11.04372         2.30702         0.31998
H          9.99364        31.03731        -0.95485
H         13.50833         2.27867        -0.16833
H         12.39513        31.03187        -1.18108
H         15.91168         2.23016        -0.43382
H         15.17779        30.14469        -2.11783
H         18.52471         2.22366        -0.56984
H         17.05317        31.20868         0.17302
H         20.62181         3.49711        -0.81854
H         21.84698         5.67836        -0.80219
H         21.84905         8.10024        -1.11793
H         21.71579         9.88411        -2.06880
H         21.95195        12.30349        -1.50890
H         22.08831        14.76929         1.24173
H         21.86558        16.89532         2.29298
H         21.86570        18.88288         2.07197
H         21.85496        21.31342         1.84144
H         21.81052        23.25932         1.87863
H         21.73564        25.68442         1.80272
H         21.47786        27.67097         2.27494
H         21.28604        30.11412         2.32962
H         19.33146        31.30088         1.40508
