         429
 CSIRO Nanostructure Databank - Neutral Graphene Oxide Data Set
C          1.26995         3.32558         0.39038
C          0.13827         4.02123         0.12318
C          1.19471         6.17682         0.62873
C          0.06197         5.44372         0.35180
C          1.17892         7.66407         0.94491
C         -0.07648         8.41244         0.59881
C          1.16529        10.50499         0.25238
C         -0.05387         9.74916         0.33174
C          1.17947        11.93139         0.00189
C         -0.06356        12.67148        -0.14803
C          1.13981        14.79324        -0.49715
C         -0.09616        14.01509        -0.31429
C          1.08850        16.27427        -0.27062
C          0.08338        17.04703        -1.01172
C          1.22026        19.15959        -0.45998
C          0.11847        18.39958        -1.02697
C          1.16936        20.60590        -0.47147
C          0.02229        21.30268        -0.84664
C          1.10022        23.49454        -0.59177
C         -0.04976        22.70517        -0.79936
C          1.06854        24.92153        -0.60661
C         -0.11493        25.67409        -0.65489
C          1.10175        27.81826        -0.58202
C         -0.10971        27.06413        -0.59619
C          1.09570        29.26029        -0.46236
C         -0.09721        30.02663        -0.42563
C          1.15133        32.07671         0.05466
C         -0.06681        31.39092        -0.21294
C          1.16669        33.51428         0.35925
C         -0.01781        34.23566         0.55318
C          1.21317        36.31224         0.90646
C          0.00474        35.60263         0.84484
C          1.23974        37.69691         1.28377
C          3.76465         3.35106         0.76553
C          2.45294         4.01904         1.02364
C          3.66372         6.17984         0.54292
C          2.46155         5.49270         0.71422
C          3.60221         7.60373         0.14664
C          2.39241         8.38003         0.40525
C          3.66646        10.48474         0.13169
C          2.40128         9.76990         0.27649
C          3.64833        11.96173         0.45434
C          2.38341        12.63196         0.00218
C          3.67066        14.82787         0.08342
C          2.44486        14.07146        -0.26488
C          3.63540        16.28230         0.52661
C          2.32769        17.01707         0.19547
C          3.61443        19.18833         0.28778
C          2.35129        18.47471        -0.01281
C          3.59925        20.68955         0.33768
C          2.25874        21.42600         0.21758
C          3.56594        23.45352        -0.64940
C          2.36252        22.81049        -0.38350
C          3.47106        24.86087        -1.22604
C          2.39025        25.62925        -0.42702
C          3.54793        27.84859        -0.76559
C          2.33510        27.12665        -0.67269
C          3.55366        29.23752        -0.54694
C          2.33463        29.95176        -0.31135
C          3.62314        31.98624         0.48579
C          2.34646        31.34430         0.00306
C          3.63370        33.48993         0.36805
C          2.41947        34.21463         0.43463
C          3.68081        36.36293         0.64345
C          2.44977        35.63939         0.64580
C          3.69684        37.74436         1.11821
C          2.42599        38.35017         1.43994
C          6.21061         3.39521         0.63309
C          4.95344         4.06875         0.66012
C          6.15833         6.24981         0.51279
C          4.92415         5.51666         0.56016
C          6.16328         7.68072         0.29756
C          4.90286         8.35412        -0.07403
C          6.13079        10.55516        -0.34889
C          4.85583         9.82797        -0.00235
C          6.10876        12.02868        -0.02148
C          4.91150        12.70327         0.07023
C          6.13788        14.87845         0.06634
C          4.88445        14.15261         0.10928
C          6.11540        16.32441        -0.00931
C          4.88928        17.03249         0.10444
C          6.08420        19.14495        -0.16283
C          4.88084        18.43904         0.04678
C          6.12753        20.63115        -0.18274
C          4.87738        21.42909         0.03477
C          6.04850        23.46048        -0.80369
C          4.82166        22.79896        -0.53147
C          6.06202        24.88122        -0.97460
C          4.80556        25.61027        -1.22668
C          6.10180        27.74563        -0.72091
C          4.81695        27.11545        -1.05429
C          6.11847        29.20631        -0.66836
C          4.81428        29.99413        -0.59856
C          6.08775        32.04010         0.02172
C          4.87640        31.36103        -0.06835
C          6.10884        33.46653         0.25307
C          4.86154        34.17645         0.35685
C          6.13044        36.22853         0.18139
C          4.87490        35.61352         0.37643
C          6.15325        38.19646         1.00624
C          4.83691        38.49218         1.46887
C          8.67473         3.44410         0.79124
C          7.42348         4.11014         0.68610
C          8.61719         6.27997         0.92510
C          7.37460         5.54890         0.68637
C          8.58581         7.79681         0.78345
C          7.33044         8.44784         0.38425
C          8.57268        10.57870         0.18577
C          7.37565         9.85325         0.12260
C          8.57934        12.02164         0.03572
C          7.36616        12.73610        -0.02497
C          8.60630        14.87977        -0.13631
C          7.35084        14.17523        -0.01563
C          8.60113        16.32765        -0.19362
C          7.34025        17.03765        -0.17242
C          8.54589        19.22071        -0.36766
C          7.30939        18.45658        -0.27509
C          8.56902        20.57452        -0.64014
C          7.25824        21.24795        -0.98430
C          8.50896        23.42881        -0.99819
C          7.29982        22.75130        -0.85341
C          8.52246        24.86906        -0.95976
C          7.27672        25.57899        -0.90252
C          8.57153        27.66745        -0.61052
C          7.29983        27.01613        -0.74764
C          8.60255        29.06586        -0.16850
C          7.32955        29.86935        -0.13431
C          8.56237        32.00817         0.03570
C          7.35799        31.35061        -0.10075
C          8.58906        33.44316         0.21863
C          7.34224        34.14851         0.30602
C          8.58084        36.31155         0.62791
C          7.36713        35.58193         0.37381
C          8.59169        37.66786         1.15743
C          7.39995        38.38582         1.57583
C         11.15481         3.47371         0.89934
C          9.91292         4.14165         0.84839
C         11.11232         6.29599         0.75467
C          9.90744         5.57668         0.84139
C         11.07291         7.71594         0.32946
C          9.83738         8.50774         0.48858
C         11.14305        10.60891         0.42730
C          9.82802         9.86846         0.31540
C         11.06679        12.06116         0.04342
C          9.83660        12.73745        -0.02246
C         11.09007        14.87928        -0.50166
C          9.80538        14.16730        -0.17536
C         11.07876        16.36254        -0.20643
C          9.81496        17.03103        -0.15610
C         11.09240        19.25902        -0.27564
C          9.79701        18.50462        -0.07183
C         11.05462        20.65494        -0.74102
C          9.80519        21.31807        -0.79583
C         10.99282        23.39761        -1.35142
C          9.78324        22.71411        -1.07223
C         10.94716        24.87124        -1.51782
C          9.73259        25.57422        -1.06272
C         11.05283        27.68653        -0.79944
C          9.77901        26.98687        -0.86240
C         11.04261        29.08393        -0.42547
C          9.87778        29.78269        -0.19894
C         11.06209        31.93881         0.38226
C          9.86102        31.29604        -0.27104
C         11.06313        33.42139         0.45199
C          9.78591        34.16738         0.31133
C         11.05919        36.22787         0.84123
C          9.80550        35.57734         0.57443
C         11.06868        37.59533         1.26978
C          9.82647        38.24856         1.48459
C         13.60584         3.53112         1.11696
C         12.38494         4.19162         0.95097
C         13.59355         6.36858         0.63531
C         12.35711         5.63446         0.79501
C         13.61191         7.73759         0.25753
C         12.33816         8.41600        -0.06337
C         13.61143        10.63135         0.00683
C         12.30851         9.92895        -0.32083
C         13.59831        12.03557         0.08907
C         12.32457        12.77006         0.02775
C         13.55367        14.93953         0.29955
C         12.32227        14.14913        -0.03027
C         13.55810        16.27692        -0.46148
C         12.28507        17.05618        -0.24441
C         13.51777        19.17304        -0.64209
C         12.34374        18.48924        -0.40273
C         13.51701        20.52086        -1.31786
C         12.24931        21.32084        -1.08719
C         13.51383        23.37030        -1.74911
C         12.22646        22.69365        -1.40363
C         13.52288        24.91341        -1.83478
C         12.23204        25.66752        -1.65558
C         13.53999        27.74336        -1.07690
C         12.27319        27.05898        -1.12855
C         13.58887        29.12833        -0.67679
C         12.34664        29.74216        -0.17187
C         13.60821        31.94999         0.15156
C         12.35634        31.18905         0.25331
C         13.60103        33.38426         0.33691
C         12.32359        34.16697         0.09147
C         13.50638        36.24783         0.82983
C         12.30875        35.56332         0.66797
C         13.53299        37.61805         1.26083
C         12.30120        38.25925         1.49205
C         16.12016         3.54768         1.24492
C         14.84110         4.31380         1.44168
C         16.02462         6.34238         0.49783
C         14.83018         5.68916         0.81139
C         16.05902         7.74580         0.24576
C         14.82683         8.45813         0.17428
C         16.07168        10.60032         0.05062
C         14.82702         9.90208         0.05099
C         16.07698        12.03395        -0.01714
C         14.83329        12.75966         0.06958
C         16.05452        14.89754        -0.04699
C         14.84618        14.17973         0.07783
C         16.06345        16.32576        -0.12022
C         14.78929        17.05368        -0.06616
C         16.07169        19.22335        -0.59464
C         14.79704        18.54548        -0.28854
C         16.03592        20.57918        -0.97614
C         14.80763        21.30526        -1.14245
C         16.06329        23.39794        -1.63300
C         14.78997        22.66279        -1.47002
C         16.04339        24.93769        -1.78302
C         14.77695        25.66035        -1.62032
C         16.01253        27.84068        -1.53682
C         14.76351        27.03400        -1.34875
C         16.01191        29.29516        -1.15686
C         14.76921        29.87915        -0.59413
C         16.05983        31.92709         0.12649
C         14.77924        31.24642        -0.13669
C         16.06088        33.38606         0.53097
C         14.77529        34.08761         0.45877
C         16.07239        36.28731         0.69344
C         14.77187        35.56600         0.48386
C         16.02662        37.64881         1.27889
C         14.78569        38.27534         1.47887
C         18.55465         3.46758         0.84203
C         17.27460         4.14273         0.82794
C         18.57261         6.29458         0.23857
C         17.25397         5.54590         0.35699
C         18.54470         7.76505         0.28265
C         17.31263         8.45350         0.17895
C         18.54584        10.59894         0.09412
C         17.30654         9.88800         0.10870
C         18.54822        12.01725        -0.09574
C         17.30094        12.72658        -0.14279
C         18.50565        14.86747        -0.25881
C         17.31131        14.17526        -0.17398
C         18.51613        16.32124        -0.01640
C         17.25254        17.07273        -0.20674
C         18.60497        19.09742        -0.84555
C         17.27165        18.46599        -0.46427
C         18.55450        20.59548        -0.79814
C         17.33061        21.24950        -1.37625
C         18.59826        23.43043        -1.50752
C         17.29963        22.74327        -1.21331
C         18.55892        24.93006        -1.24734
C         17.29130        25.68137        -1.39310
C         18.58728        27.84863        -1.17563
C         17.36410        27.14969        -1.78729
C         18.59064        29.23918        -0.91355
C         17.33025        30.01441        -1.00634
C         18.58754        32.03965         0.02478
C         17.33212        31.40047        -0.43413
C         18.57258        33.40969         0.43168
C         17.33598        34.14083         0.51845
C         18.54687        36.19373         1.08349
C         17.33289        35.50755         0.77845
C         18.49758        37.57671         1.47774
C         17.25085        38.25661         1.60457
C         19.74123         4.15223         0.76079
C         20.96534         6.32213         0.78376
C         19.80017         5.57525         0.60345
C         20.96280         7.71762         0.64331
C         19.78178         8.45607         0.40267
C         20.98155        10.63694         0.20878
C         19.78678         9.90279         0.24942
C         20.97865        12.01270        -0.03807
C         19.78532        12.71642        -0.20223
C         21.03203        14.94560        -0.42396
C         19.76861        14.15817        -0.68068
C         21.05737        16.25724        -0.15168
C         19.81641        17.04146         0.07728
C         20.86147        19.30673         0.23341
C         19.79353        18.50891        -0.13096
C         20.83992        20.69624         0.04931
C         19.68426        21.35984        -0.47383
C         20.69692        23.60561        -0.11188
C         19.68275        22.78757        -0.67753
C         20.83057        24.94186        -0.37989
C         19.90048        25.64365        -1.34658
C         20.98063        27.81627        -0.75677
C         19.79653        27.13108        -1.06732
C         20.97674        29.17499        -0.48224
C         19.78049        29.91444        -0.51974
C         20.99950        32.02333         0.15814
C         19.79004        31.33328        -0.12564
C         21.00279        33.35270         0.53693
C         19.80002        34.08877         0.67885
C         20.96740        36.19907         1.38046
C         19.78655        35.49181         1.05207
C         20.92042        37.54627         1.74008
C         19.70750        38.23180         1.79956
O         13.51054        24.07718        -3.02942
O         11.55256         7.73649        -1.10515
O         17.89099         5.72817        -0.94563
O          3.64544        19.92045         1.57942
O         16.19641        24.10991        -2.96889
O          6.15973        37.55115        -0.25363
O         16.15260        32.30427         1.53812
O          5.56700        29.84024        -1.86693
O         12.45572        30.11704         1.25738
O          8.55174         7.17819         2.11589
O          1.95201        14.42339        -1.65338
O         15.79612        28.87567        -2.55814
O          5.88886        21.28207         1.09580
O         10.98751        32.60102         1.67393
O         19.12820        16.64515         1.33032
O         14.69908        17.94749         1.06892
O          7.82064        29.26968         1.10366
O         17.79066        25.33924        -0.06423
O         11.36298        25.45145        -2.81289
O          4.17596         7.79018        -1.21201
O          4.87528        26.48780        -2.40422
O         15.46776        36.19726        -0.65855
O         17.34729        31.19421        -1.88837
O          1.24268        16.63474         1.14005
O         10.52101        19.07773         1.07204
O         11.50782        10.55315         1.84287
H         10.80235        10.99977         2.35669
O          6.21024        10.49943        -1.81790
H          5.34534        10.79023        -2.17764
O         12.10700        10.14046        -1.73485
H         11.71037         9.31019        -2.09317
O          6.96081        20.94885        -2.38519
H          7.66089        21.35596        -2.93796
O          3.61400        12.02736         1.92920
H          4.48633        11.72768         2.26274
O          2.21999         3.90673         2.49104
H          1.46865         4.50354         2.70095
O         14.77990         4.56565         2.91035
H         13.89698         4.95084         3.09896
O         13.49136        20.18998        -2.75350
H         13.66907        21.01529        -3.25537
O         17.46188        20.99135        -2.84657
H         18.13055        21.65371        -3.17093
O         12.23689        34.32301        -1.36031
H         12.98803        34.88380        -1.65047
O          2.78926        25.49870         0.97399
H          2.03917        25.78880         1.53435
O          1.29170         7.71068         2.42408
H          1.25447         8.65566         2.68668
O         13.47482        15.28026         1.71398
H         13.53468        14.45136         2.23293
O         18.80567        18.73722        -2.26842
H         18.25350        19.37945        -2.79221
O          3.70764        16.22598         1.98389
H          2.78158        16.16830         2.31414
O         20.45054        25.49881        -2.67805
H         20.21331        24.59417        -3.00186
O          3.65041        31.70141         1.94072
H          4.46863        32.10524         2.30215
O         11.19764        14.81626        -1.99912
H         11.12890        13.86895        -2.25208
O          1.75822        21.63156         1.57107
H          2.15602        20.91583         2.12365
O          3.03087        24.72309        -2.58901
H          3.45679        25.45056        -3.10189
O         19.69307        14.06442        -2.15112
H         18.89638        13.53743        -2.37495
O         17.57857        27.13734        -3.21497
H         17.20886        27.98058        -3.56803
O         18.91565        23.27937        -2.97048
H         18.15212        23.70696        -3.43600
O         13.69645        16.00132        -1.87403
H         12.84908        15.58835        -2.18526
O         10.09878        31.57987        -1.69999
H          9.31474        31.28701        -2.21158
H          1.30263         2.23290         0.26881
H         -0.75484         3.50660        -0.26047
H         -0.91605         5.93318         0.24910
H         -1.04572         7.90239         0.69287
H         -1.01347        10.25941         0.16870
H         -1.01611        12.13744        -0.03270
H         -1.05447        14.55425        -0.28688
H         -0.68972        16.50195        -1.57212
H         -0.66784        18.93682        -1.57294
H         -0.87811        20.76268        -1.17075
H         -1.01266        23.18497        -1.02152
H         -1.08505        25.15994        -0.71247
H         -1.07453        27.58775        -0.57658
H         -1.06974        29.53932        -0.57809
H         -1.01725        31.94116        -0.21562
H         -0.99075        33.72800         0.51323
H         -0.93932        36.13217         1.03798
H          0.28903        38.20698         1.49601
H          3.80173         2.25209         0.81364
H          2.43175        39.39444         1.78577
H          6.22787         2.29599         0.66691
H          4.69177        39.35590         2.13701
H          8.68583         2.34420         0.80706
H          7.50192        39.06703         2.43428
H         11.17747         2.37467         0.93242
H          9.83679        39.26727         1.90079
H         13.62119         2.43699         1.23081
H         12.29072        39.30821         1.82380
H         16.13950         2.50312         1.59305
H         14.77166        39.30533         1.86666
H         18.56486         2.38374         1.02954
H         17.25156        39.28636         1.99318
H         20.68892         3.60639         0.88166
H         21.90548         5.80851         1.03197
H         21.91764         8.24644         0.76399
H         21.94858        10.13102         0.32907
H         21.94379        12.53155        -0.10867
H         21.98660        14.43027        -0.60680
H         22.02211        16.78152        -0.06981
H         21.75159        18.84778         0.68851
H         21.73699        21.27207         0.30853
H         21.41996        23.14791         0.57945
H         21.65895        25.49163         0.08874
H         21.93712        27.27753        -0.74252
H         21.92698        29.65941        -0.22541
H         21.96659        31.51594         0.04826
H         21.96936        33.84345         0.71404
H         21.94049        35.69043         1.36165
H         21.85319        38.07047         1.99108
H         19.68472        39.28822         2.10287
