         762
 CSIRO Nanostructure Databank - Neutral Graphene Oxide Data Set
C         23.23027        24.57490         1.24582
C         22.16228        25.34572         1.78371
C         22.88218        27.31755         0.56421
C         21.99264        26.68686         1.43606
C         22.83402        28.72586         0.24954
C         21.62829        29.50635         0.33085
C         22.75172        31.56136        -0.40463
C         21.58272        30.84056        -0.00784
C         22.81007        32.96657        -0.61795
C         21.60746        33.76975        -0.76108
C         22.87029        35.87499        -1.09650
C         21.61372        35.11637        -0.94362
C         22.92518        37.36915        -1.13524
C         21.82592        38.11462        -1.59689
C         23.17979        40.13494        -1.82310
C         21.94200        39.46302        -1.92586
C         23.36761        41.52926        -2.27081
C         22.27100        42.26457        -2.76494
C         23.69119        44.18510        -3.23737
C         22.43708        43.55185        -3.25480
C         23.87553        45.49362        -3.90805
C         22.73517        46.34201        -4.25283
C         24.18814        48.28565        -4.52133
C         22.92309        47.63585        -4.64249
C         25.28248        22.85424         0.09116
C         25.22773        24.30199        -0.30146
C         24.09075        25.09526         0.31381
C         25.28024        27.24236        -0.17782
C         23.93690        26.51907        -0.16251
C         25.29175        28.63593        -0.17164
C         24.02009        29.35624        -0.15553
C         25.30983        31.57820        -0.21056
C         23.98471        30.77915        -0.48681
C         25.19860        33.00561        -0.00547
C         24.05657        33.66446        -0.46253
C         25.31420        35.88317        -0.28327
C         24.13047        35.12007        -0.75086
C         25.33679        37.33512        -0.40474
C         24.15629        38.03988        -0.93254
C         25.59242        40.04796        -1.21108
C         24.25838        39.41072        -1.27626
C         25.81271        41.42269        -1.75021
C         24.63025        42.17554        -2.22611
C         26.06696        44.23340        -2.43113
C         24.80263        43.51574        -2.66526
C         26.23294        45.58001        -2.83658
C         25.23644        46.20591        -3.72569
C         26.49264        48.37408        -3.58506
C         25.28324        47.65728        -3.96191
C         26.67147        49.72114        -3.96001
C         27.73877        22.88172         0.24632
C         26.45503        22.20387         0.25270
C         27.72572        24.33750         0.12839
C         26.55136        25.01749        -0.07955
C         27.83266        27.27795        -0.11644
C         26.52119        26.48520        -0.32171
C         27.74387        28.70543         0.21589
C         26.52729        29.35968         0.03549
C         27.61700        31.53842         0.90396
C         26.42475        30.79868         0.38519
C         27.63369        33.04607         0.91202
C         26.35363        33.76315         0.52140
C         27.59973        35.90880         0.69628
C         26.39067        35.20863         0.22559
C         27.63523        37.39357         0.59573
C         26.44873        38.04133         0.01191
C         27.67142        40.28054         0.33320
C         26.49891        39.50544        -0.15880
C         27.98042        41.59564        -0.32444
C         27.05009        42.18461        -1.34314
C         28.20250        44.38908        -1.22190
C         27.09346        43.64028        -1.64414
C         28.36050        45.74565        -1.61106
C         27.36424        46.34328        -2.43081
C         28.65999        48.46865        -2.41524
C         27.50865        47.72875        -2.82677
C         28.80583        49.83460        -2.79349
C         27.79960        50.42901        -3.58362
C         30.22771        20.08517         0.47451
C         29.02864        20.73760         0.31180
C         30.17713        22.87201         0.76474
C         28.93463        22.16284         0.37672
C         30.17752        24.36051         0.76298
C         29.06446        25.05366        -0.00431
C         30.17594        27.24736         0.57234
C         29.03594        26.54198         0.27208
C         30.16122        28.68780         0.68606
C         28.95456        29.37835         0.63745
C         30.20406        31.62613         0.88578
C         28.92802        30.82281         0.97143
C         30.14277        33.09261         0.63313
C         28.93552        33.74337         0.72315
C         30.18722        35.98478         0.48989
C         28.89540        35.19470         0.49641
C         30.16287        37.45621         0.72140
C         28.94734        38.10122         0.63187
C         30.14725        40.28704         1.15539
C         28.86285        39.54449         0.89739
C         30.11679        41.79025         1.10354
C         28.96479        42.47763         0.38777
C         30.40845        44.53933         0.03671
C         29.13422        43.84328        -0.20264
C         30.54555        45.89127        -0.40340
C         29.52468        46.50339        -1.19928
C         30.80052        48.62749        -1.14781
C         29.67584        47.85074        -1.60630
C         30.92165        50.02162        -1.50726
C         29.96033        50.59778        -2.35313
C         31.20993        52.69356        -2.38208
C         30.12965        51.95381        -2.77644
C         32.75842        18.63115         0.91182
C         32.74164        20.02509         0.69526
C         31.48104        20.77211         0.63654
C         32.69979        22.92033         0.58480
C         31.47978        22.16762         0.72474
C         32.74405        24.31825         0.56557
C         31.49940        25.07098         0.85944
C         32.69754        27.27219         0.35351
C         31.47802        26.55776         0.79056
C         32.65033        28.62640         0.18299
C         31.47164        29.39249         0.66922
C         32.55844        31.64006        -0.13400
C         31.48904        30.89563         0.61384
C         32.59344        33.13887        -0.01343
C         31.38715        33.83982         0.49951
C         32.72081        35.92349         0.72135
C         31.42686        35.20943         0.60346
C         32.70335        37.42725         0.85033
C         31.41591        38.18368         0.85882
C         32.68646        40.31997         1.09918
C         31.43936        39.56917         1.00760
C         32.68689        41.71022         1.37032
C         31.39874        42.52529         1.32246
C         32.36417        44.83233         1.36260
C         31.37750        43.96017         0.86405
C         32.70253        46.04078         0.78340
C         31.71018        46.64391        -0.05266
C         32.80309        48.85281         0.39462
C         31.79363        48.02359        -0.36415
C         33.01961        50.22832        -0.19663
C         32.05237        50.80356        -1.02507
C         33.30080        52.96600        -1.10670
C         32.19566        52.17004        -1.49081
C         33.60033        54.19839        -1.74827
C         35.19010        18.63085         0.95994
C         33.96249        17.95078         1.02627
C         35.21277        20.02568         0.71292
C         33.97419        20.70809         0.56993
C         35.21138        22.92316         0.10351
C         33.92200        22.15658         0.26180
C         35.19555        24.38465         0.30098
C         33.97153        25.06109         0.40512
C         35.11714        27.23765         0.12566
C         33.94928        26.52457         0.27862
C         35.12584        28.63368        -0.38909
C         33.80680        29.36138        -0.39656
C         35.04266        31.64749        -0.80933
C         33.77633        30.86030        -0.55266
C         35.03708        33.16611        -0.72099
C         33.86558        33.89103        -0.14767
C         35.13509        36.02692         0.05207
C         33.94158        35.23240         0.21632
C         35.12753        37.44575         0.23373
C         33.95087        38.17484         0.56067
C         35.17712        40.24098         1.00438
C         33.94533        39.58608         0.85284
C         35.19583        41.57967         1.59481
C         33.95179        42.37167         1.58735
C         35.30180        44.51611         1.69843
C         34.12267        43.71361         1.93521
C         35.26382        45.93533         1.46081
C         34.05600        46.63748         0.91879
C         35.27590        48.87356         1.18826
C         34.12384        48.10786         0.61166
C         35.25455        50.38266         1.10825
C         34.06428        51.05585         0.43810
C         35.42165        53.29790         0.26172
C         34.16938        52.51827        -0.00222
C         35.65709        54.53457        -0.47067
C         34.70834        54.96125        -1.42976
C         37.79595        15.86474         1.00473
C         36.57988        16.46911         0.95628
C         37.74059        18.70559         1.32628
C         36.45099        17.90190         1.24837
C         37.68275        20.14931         1.01137
C         36.49354        20.74747         0.68581
C         37.76287        22.95986         0.31590
C         36.50386        22.16590         0.22264
C         37.66018        24.43523         0.33387
C         36.45343        25.09570         0.32700
C         37.66041        27.39692         0.37958
C         36.40628        26.58322         0.39989
C         37.68282        28.83015        -0.03669
C         36.41221        29.42686        -0.52270
C         37.61743        31.72704        -0.58157
C         36.37191        30.92857        -0.76433
C         37.65088        33.11331        -0.63871
C         36.36578        33.88838        -0.77033
C         37.68560        36.12990        -0.51908
C         36.33564        35.38635        -0.52342
C         37.69838        37.48230         0.01825
C         36.40961        38.18421         0.05209
C         37.73682        40.27881         0.92083
C         36.43351        39.66275         0.53210
C         37.75508        41.62519         1.33325
C         36.51768        42.33562         1.69867
C         37.75026        44.49936         1.53667
C         36.51956        43.80595         1.63460
C         37.74090        45.94262         1.48466
C         36.50501        46.65731         1.40434
C         37.76481        48.79112         1.27266
C         36.55015        48.10678         1.29853
C         37.85706        50.27877         1.26367
C         36.58960        51.10624         1.21787
C         37.96917        53.16795         0.52740
C         36.68149        52.56624         0.83737
C         38.03856        54.54840         0.21639
C         36.85745        55.25758        -0.20950
C         38.10410        57.34722        -0.23552
C         36.94245        56.64940        -0.48032
C         40.34452        14.69539         1.94486
C         40.27932        15.86833         1.23406
C         39.02902        16.60543         1.12142
C         40.24256        18.77514         1.06450
C         39.02652        18.00578         1.12897
C         40.25331        20.17006         1.13444
C         38.95205        20.92252         1.33190
C         40.20788        23.00169         0.77504
C         39.02221        22.31492         0.75714
C         40.18016        24.48167         0.74503
C         38.94212        25.16556         0.25820
C         40.18776        27.39739         0.55583
C         38.94586        26.64925         0.22312
C         40.14265        28.87996         0.30525
C         38.85446        29.52129        -0.10443
C         40.16953        31.69860        -0.54949
C         38.86978        30.93829        -0.57740
C         40.14909        33.17851        -0.49383
C         38.92475        33.83735        -0.55941
C         40.26973        36.04602        -0.43281
C         38.95281        35.32506        -0.66685
C         40.27997        37.51338        -0.08846
C         38.95409        38.24934         0.09760
C         40.20133        40.22524         1.01078
C         38.95755        39.59345         0.72394
C         40.19719        41.58250         1.41590
C         38.97978        42.32413         1.48207
C         40.19211        44.50718         1.82914
C         38.95255        43.75354         1.62970
C         40.21568        45.93189         1.48656
C         38.98439        46.64783         1.38829
C         40.23982        48.74096         1.04537
C         38.99853        48.07033         1.27062
C         40.35572        50.20263         0.94014
C         39.16159        50.91791         0.91229
C         40.53330        53.03578         0.44083
C         39.17852        52.32493         0.49076
C         40.56683        54.53250         0.35889
C         39.28260        55.27269         0.24947
C         40.49259        57.45402         0.56012
C         39.29641        56.66634         0.13048
C         40.66177        58.86261         0.19614
C         42.78514        14.66285         1.93471
C         41.61084        14.13697         2.34866
C         42.82729        15.72474         0.86243
C         41.52943        16.53564         0.81040
C         42.78552        18.74291         1.13313
C         41.50770        18.04452         0.80207
C         42.76420        20.23686         1.32098
C         41.47664        20.93882         1.13610
C         42.72942        23.08909         0.94720
C         41.48500        22.33739         1.00453
C         42.74018        24.48686         0.74741
C         41.47404        25.24529         0.80060
C         42.64692        27.36206         0.21571
C         41.47253        26.68038         0.45710
C         42.59997        28.78638        -0.12245
C         41.42165        29.49094        -0.09537
C         42.68979        31.68667        -0.32686
C         41.40957        30.97392        -0.14847
C         42.66907        33.16060        -0.46443
C         41.43759        33.86788        -0.38667
C         42.71477        35.90752         0.18365
C         41.49677        35.26497        -0.17705
C         42.67178        37.30758         0.63255
C         41.51287        38.06358         0.53706
C         42.66627        40.13342         1.08771
C         41.47380        39.48428         0.89878
C         42.73469        41.55087         1.47194
C         41.46324        42.27665         1.71786
C         42.73942        44.50440         1.51405
C         41.49851        43.77002         1.81949
C         42.74710        45.87444         1.34184
C         41.44481        46.56032         1.23232
C         43.08659        48.93995         1.19801
C         41.33086        47.90060         0.78771
C         42.85168        50.23823         1.54682
C         41.64463        50.92896         1.06098
C         43.03132        53.04075         1.08463
C         41.69230        52.31356         0.97169
C         42.98545        54.53683         1.26281
C         41.82160        55.25836         0.74254
C         43.03662        57.45026         1.07708
C         41.74752        56.72627         1.00377
C         43.00961        58.83791         0.89774
C         41.84643        59.50972         0.43864
C         45.30165        15.95796         0.97602
C         44.09166        16.57491         0.93123
C         45.31161        18.76051         1.18448
C         44.06231        18.07201         0.65360
C         45.30384        20.24452         1.42304
C         44.03117        21.00802         1.24089
C         45.22193        23.23618         1.39346
C         43.99434        22.37181         1.08229
C         45.25479        24.51542         0.50131
C         43.93863        25.26206         0.55194
C         45.16197        27.44058         0.30581
C         43.90722        26.63628         0.32237
C         45.12512        28.88257        -0.13875
C         43.82548        29.37225        -0.82184
C         45.10847        31.66750        -1.11936
C         43.83923        30.92272        -0.89272
C         45.20951        33.02450        -0.38669
C         43.90273        33.81942        -0.32123
C         45.24915        35.67807         0.66503
C         43.92825        35.16891         0.09790
C         45.24606        37.18386         0.94314
C         43.94390        37.93103         1.12341
C         45.19602        40.19366         0.90667
C         43.96538        39.44249         1.39934
C         45.22289        41.57132         0.94640
C         43.91745        42.34147         0.92401
C         45.29562        44.44764         1.50303
C         43.99517        43.72149         1.56714
C         45.25662        45.92049         1.47885
C         44.04086        46.58112         1.38236
C         45.34147        48.70259         2.22469
C         44.05746        48.01630         1.75612
C         45.29680        50.19355         2.42054
C         43.96405        50.94022         2.23979
C         45.28288        53.14630         2.33393
C         43.97623        52.42680         2.10125
C         45.35031        54.58061         1.97752
C         44.17303        55.25876         1.56631
C         45.48137        57.37609         1.50926
C         44.21578        56.70707         1.38358
C         46.54590        16.67917         0.86980
C         47.82413        18.81337         0.77183
C         46.59298        18.04543         0.91790
C         47.82089        20.23057         0.82545
C         46.61658        20.97896         1.31478
C         47.75135        23.22419         0.76969
C         46.56960        22.48140         1.29261
C         47.73339        24.58286         0.65689
C         46.47551        25.38232         0.94710
C         47.61601        27.43695        -0.11866
C         46.46690        26.76533         0.30374
C         47.57719        28.78742        -0.63951
C         46.37659        29.50750        -0.63377
C         47.51889        31.37343        -1.70306
C         46.33846        30.80951        -1.19765
C         47.51581        33.51483        -1.42974
C         46.37861        33.94948        -0.74136
C         47.68227        35.90295        -0.07809
C         46.46602        35.19590        -0.09092
C         47.67845        37.31238         0.31399
C         46.48586        37.95083         0.64731
C         47.67152        40.17605         0.29497
C         46.38742        39.41589         0.50952
C         47.71099        41.59520         0.75840
C         46.45152        42.34847         0.86328
C         47.74526        44.48688         0.98596
C         46.51440        43.72182         1.08686
C         47.73855        45.94076         1.19796
C         46.52889        46.63346         1.51229
C         47.74904        48.78692         1.61446
C         46.57511        48.01848         1.81258
C         47.77992        50.22224         1.92182
C         46.55448        50.95842         2.29485
C         47.79040        53.07875         2.13277
C         46.52718        52.33786         2.37206
C         47.85890        54.57099         2.12406
C         46.57553        55.33643         2.44207
C         46.60157        56.75593         1.95763
C         50.20359        18.85008         0.24347
C         49.03658        18.14894         0.48945
C         50.21235        20.25910         0.20047
C         48.99610        20.94001         0.49597
C         50.21382        23.11907         0.04114
C         48.92906        22.41342         0.32677
C         50.25785        24.59738         0.26509
C         48.97110        25.35918         0.39612
C         49.97427        27.26220        -0.84049
C         48.88829        26.73649        -0.16059
C         50.06321        28.65586        -1.40272
C         48.78869        29.42398        -1.24445
C         50.03064        31.66939        -1.55909
C         48.81480        30.89173        -1.45854
C         50.02203        33.16495        -1.43124
C         48.83098        33.96443        -1.15914
C         50.14466        35.92023        -0.48460
C         48.88434        35.26816        -0.56186
C         50.22628        37.25490         0.23165
C         48.92913        38.05786         0.19819
C         50.10500        40.24776        -0.25668
C         48.94471        39.42970         0.26448
C         50.19605        41.70932         0.10606
C         49.00055        42.37967         0.64280
C         50.20199        44.55594         0.44864
C         48.92337        43.84111         0.64371
C         50.21232        46.02653         0.71518
C         48.93031        46.69584         1.05984
C         50.12556        48.87843         0.82707
C         48.91727        48.10515         1.18471
C         50.18441        50.33394         1.23442
C         48.98365        50.89642         1.87708
C         50.35489        53.00850         2.42332
C         49.04707        52.29868         2.34265
C         50.32664        54.49685         2.42377
C         49.18441        55.20321         2.36807
C         52.66515        20.29646        -0.45148
C         51.45735        20.96671        -0.14159
C         52.65613        23.06407        -0.55968
C         51.48510        22.37607        -0.17193
C         52.63591        24.53831        -0.57593
C         51.32122        25.20951        -0.53726
C         52.82408        27.44855        -1.75324
C         51.02455        26.35543        -1.19713
C         52.60456        28.87230        -1.63729
C         51.34508        29.47897        -1.53067
C         52.53800        31.68502        -1.76302
C         51.26094        30.93560        -1.56843
C         52.52170        33.19843        -1.66475
C         51.24505        33.87424        -1.32418
C         52.62476        35.95658        -0.72598
C         51.29132        35.24220        -0.90088
C         52.47414        37.45641        -1.06487
C         51.46218        38.09060        -0.13701
C         52.57200        40.34461        -0.73884
C         51.43749        39.57220        -0.16726
C         52.51593        41.72540        -0.71345
C         51.32885        42.40574        -0.24027
C         52.59968        44.62843        -0.35068
C         51.26340        43.90816        -0.44190
C         52.51350        46.11584        -0.36781
C         51.36942        46.83707         0.24784
C         52.57373        49.04915         0.20587
C         51.38796        48.18121         0.47259
C         52.67820        50.35004         0.94052
C         51.50753        50.99625         1.41101
C         52.83958        52.89426         2.13049
C         51.58661        52.27904         1.99934
C         53.81782        20.98097        -0.82388
C         55.03070        23.14272        -1.39136
C         53.84848        22.39159        -0.90751
C         55.08634        24.56444        -1.33690
C         53.87622        25.30015        -0.90926
C         55.17263        27.39489        -0.87050
C         53.87956        26.74662        -1.24836
C         55.02248        28.91029        -0.92348
C         53.92707        29.57667        -1.76098
C         55.05847        31.75804        -1.41932
C         53.85772        31.05285        -1.55894
C         55.03013        33.22471        -1.41185
C         53.82113        33.88270        -1.44541
C         55.03846        36.10926        -1.27905
C         53.75682        35.37231        -1.57880
C         55.01689        37.49971        -1.23107
C         53.78902        38.22558        -1.11121
C         55.00922        40.40322        -1.14982
C         53.77516        39.61937        -1.05363
C         54.96248        41.81030        -1.20418
C         53.64973        42.54990        -1.27879
C         55.00313        44.71143        -0.93524
C         53.74203        43.98472        -0.75349
C         55.03306        46.13732        -0.69797
C         53.78699        46.91201        -0.62372
C         55.20337        49.06597        -0.20319
C         53.82479        48.40428        -0.33424
C         55.26984        50.45242         0.58358
C         53.92923        50.97866         1.09687
C         53.98694        52.25237         1.68419
C         57.14002        23.17091        -2.60268
C         56.10308        22.46215        -2.00405
C         57.16594        24.56822        -2.50430
C         56.20760        25.30453        -1.79977
C         57.62734        27.55813        -1.36130
C         56.29614        26.85719        -1.80516
C         57.56164        28.83641        -0.82614
C         56.29681        29.64008        -0.78784
C         57.44882        31.84568        -0.72407
C         56.28727        31.08108        -1.11471
C         57.58171        33.23498        -1.30218
C         56.26700        33.98027        -1.25586
C         57.47034        36.08002        -0.69853
C         56.25610        35.35849        -1.15469
C         57.47036        37.57693        -0.66732
C         56.32087        38.25646        -1.39083
C         57.45293        40.51465        -0.71300
C         56.24107        39.72755        -1.12596
C         57.51396        41.88717        -1.36368
C         56.18816        42.57593        -1.61739
C         57.46435        44.74333        -1.38542
C         56.19079        44.02748        -1.19716
C         57.50487        46.19667        -0.96339
C         56.25199        46.79104        -0.44941
C         57.48767        48.45856         0.86510
C         56.28571        48.07818         0.12259
C         57.37272        49.63698         1.74726
C         56.29127        50.43010         1.71392
C         60.39775        25.19277        -2.61331
C         59.15197        25.80066        -2.43644
C         60.14071        27.52772        -1.10745
C         58.94633        26.94126        -1.61320
C         60.11847        28.89525        -0.52936
C         58.78184        29.57686        -0.39249
C         60.00820        31.81931        -0.58896
C         58.76968        31.08719        -0.36996
C         59.99428        33.26466        -0.55861
C         58.78098        33.97682        -0.75495
C         59.96969        36.11220        -0.52673
C         58.76420        35.37511        -0.65661
C         59.96538        37.57041        -0.67175
C         58.77254        38.27904        -0.67058
C         60.06068        40.42345        -1.15572
C         58.77117        39.74612        -0.71953
C         59.98219        41.78603        -1.82283
C         58.70436        42.55715        -1.52428
C         59.96502        44.67389        -1.28098
C         58.75352        44.00815        -1.47742
C         60.04564        46.05284        -0.81396
C         58.81382        46.94998        -0.77760
C         60.10186        48.45340         0.80122
C         58.80924        47.81553         0.47575
C         61.51763        25.70345        -1.95954
C         61.38552        26.88960        -1.24437
C         61.30247        29.74622        -0.77508
C         61.21999        31.10806        -0.82587
C         61.17728        34.00767        -0.31454
C         61.17094        35.39220        -0.34041
C         61.17907        38.23851        -1.09581
C         61.19103        39.54328        -1.47358
C         61.23106        42.58689        -1.58861
C         61.20605        43.91343        -1.37485
C         61.21420        46.62303        -0.37096
C         61.23880        47.88971         0.32388
O         44.43431        48.09058         3.16960
O         57.34336        45.83855        -2.37374
O         59.47192        29.02068         0.77985
O         29.86164        23.67922         1.99477
O         58.13484        25.26883        -3.23973
O         40.65818        25.00035         2.02871
O         34.47073        47.19495        -0.44178
O         24.92602        45.43266        -4.92587
O         39.65795        31.14199        -1.80418
O         26.44907        40.26344         1.11905
O         42.74376        19.27929         2.46945
O         41.46827        17.28853        -0.46130
O         35.70525        31.22893        -2.02405
O         36.82424        36.07539        -1.71064
O         59.69388        40.37748         0.25205
O         29.65726        31.21822         2.17578
O         50.95420        44.00899        -1.82060
O         44.62090        37.31396         2.28244
O         24.92452        31.14732        -1.53775
O         47.78617        53.84182         0.86026
O         29.49831        35.61388        -0.77539
O         43.83434        28.81053        -2.09083
O         47.36496        32.55245        -2.42523
O         29.28505        39.84462         2.26058
O         45.26141        19.28344         2.53623
O         39.94715        52.46610        -0.77254
O         55.31655        29.47096         0.37480
O         51.89210        38.85196         1.03360
O         49.70888        52.46122         3.64524
O         30.45133        42.32611         2.41916
O         42.40577        48.43630         0.07937
O         53.50529        25.09438         0.50527
O         34.88681        49.68909         2.34412
O         52.48756        32.53796        -2.98887
O         37.26096        50.87173         2.48549
O         37.02848        18.29992         2.54299
O         41.53448        54.94486        -0.69480
O         50.70626        45.05925         1.73868
O         49.17238        28.77819        -2.55325
O         44.16648        31.50838        -2.20195
O         42.16935        31.43015         1.03536
O         33.45118        29.97814        -1.67347
O         26.16417        40.23684        -2.54807
O         40.08789        28.32815         1.67296
O         27.35772        26.90990        -1.46592
O         32.87578        36.55008         2.04567
O         37.00438        27.13154         1.66031
O         46.91424        21.76362         2.51946
O         35.80088        53.38468         1.65818
O         26.74081        33.56585         1.93922
O         49.28008        22.80699        -1.06532
O         48.57074        41.76073         1.92874
O         35.89448        41.71888         2.88924
O         23.76398        35.35902        -2.15651
O         27.41497        36.70166         1.90036
O         58.05271        47.26540         1.57663
O         57.89514        31.67471         0.64374
O         34.44482        22.49181        -1.07475
O         44.97691        23.62299         2.71736
O         26.61507        31.00650         1.82692
O         57.16412        36.85020         0.54407
O         52.86657        46.59662        -1.70504
O         31.93458        30.20816         1.82098
O         33.05974        44.40518         2.49278
O         32.10960        32.44291        -1.25665
O         44.20135        53.05448         3.37715
O         52.94332        49.15031        -1.21105
O         43.60281        42.58273        -0.42947
O         45.07530        28.59936         1.26103
O         39.74120        38.30861        -1.17313
O         40.77707        57.15633         1.99605
O         40.89679        44.20811         3.09108
O         39.09609        25.89838        -1.02280
O         36.36633        39.30925        -0.88957
O         42.27136        41.72822         2.83528
O         55.77615        51.42847        -0.29715
O         44.41880        50.52676         3.54435
O         49.87011        49.94800        -0.15310
O         35.56326        33.69023        -1.97865
O         44.75268        43.87941         2.78484
O         39.76205        35.79670        -1.78338
O         51.77870        26.71417        -2.31314
O         28.39765        43.60133         1.09017
O         31.60043        25.88424         2.08858
O         35.85947        28.68400        -1.65655
O         37.32630        22.36287        -0.98245
O         33.48047        52.15000         1.22956
O         46.83227        39.88943        -0.85621
O         28.29098        41.48276        -1.74630
O         49.92802        25.19497         1.53931
O         55.57015        26.98060         0.44100
H         55.45093        27.74657         1.05077
O         46.38682        25.68564         2.34262
H         45.90601        24.93279         2.81386
O         56.04033        27.27629        -3.15217
H         56.69424        26.82828        -3.73265
O         57.18376        40.86585         0.68987
H         58.06283        40.94905         1.13029
O         25.01829        24.31769        -1.76267
H         25.80476        23.90527        -2.17959
O         50.42448        36.86811         1.62880
H         50.75951        37.67217         2.09413
O         44.08554        18.24673        -0.79084
H         43.26508        17.82926        -1.14617
O         45.38757        35.01734         1.96473
H         44.87060        35.55165         2.61531
O         59.92785        41.48695        -3.25173
H         59.77986        42.32776        -3.73407
O         32.22673        49.07202         1.71460
H         32.87290        49.60121         2.24152
O         49.84813        40.24675        -1.70510
H         48.93966        40.58279        -1.86632
O         54.35038        29.37618        -3.14759
H         53.70133        29.82423        -3.73080
O         56.69674        38.13703        -2.81444
H         55.98153        38.54166        -3.35133
O         53.02023        35.81180         0.65012
H         52.26838        36.10386         1.22068
O         51.84366        37.57628        -2.36193
H         52.37951        37.04266        -3.00010
O         43.68454        52.80897        -0.20888
H         43.14019        53.26798        -0.88917
O         57.86811        33.00632        -2.72474
H         57.85413        33.87313        -3.18321
O         53.30909        42.75812        -2.69765
H         52.42138        43.23808        -2.66786
O         45.46318        24.07498        -0.85502
H         45.18354        24.77952        -1.47626
O         38.83101        21.14997         2.78236
H         39.69809        21.47012         3.11379
O         53.47501        35.60997        -3.00428
H         53.09590        34.78898        -3.38945
O         46.49775        55.35983         3.90238
H         45.61888        55.70943         4.16151
O         55.70339        49.34603        -1.52912
H         55.88988        50.34886        -1.50429
O         44.01105        39.62453         2.84893
H         44.47051        38.84211         3.23419
O         23.49445        26.50346        -1.56102
H         24.02666        25.80882        -2.02315
O         56.07177        42.67204        -3.08447
H         55.11924        42.87170        -3.28431
O         42.88036        14.99362        -0.40097
H         42.59272        15.61588        -1.10487
O         29.43339        24.93394        -1.41308
H         28.81560        25.51756        -1.91598
O         58.92594        47.87491        -1.88507
H         58.56992        47.42276        -2.68317
O         45.52442        32.55789         0.95233
H         45.50247        33.33343         1.57245
H         23.34914        23.53606         1.58718
H         21.47664        24.87780         2.50267
H         21.18366        27.26660         1.90387
H         20.70176        29.00448         0.64311
H         20.62214        31.36989         0.06283
H         20.63753        33.25483        -0.70381
H         20.65834        35.65961        -0.98309
H         20.86031        37.61377        -1.75410
H         21.05595        39.97766        -2.32010
H         21.27115        41.81431        -2.80587
H         21.56816        44.06597        -3.68592
H         21.71526        45.94059        -4.18067
H         24.22463        49.35735        -4.75790
H         22.05916        48.24050        -4.95242
H         24.33964        22.28860         0.10377
H         25.91260        50.23014        -4.56780
H         26.43787        21.12377         0.45633
H         27.88146        51.47519        -3.90277
H         30.23190        18.98988         0.39366
H         28.13033        20.14091         0.10143
H         31.28326        53.73264        -2.72637
H         29.39096        52.42422        -3.43649
H         31.82107        18.07272         1.03080
H         32.94553        54.56197        -2.54988
H         33.94864        16.87087         1.22670
H         34.88507        55.89632        -1.97815
H         37.86609        14.78108         0.83296
H         35.68504        15.88459         0.69972
H         38.10680        58.44016        -0.33857
H         36.03884        57.19365        -0.78627
H         39.42315        14.23841         2.33196
H         39.84155        59.40201        -0.29687
H         43.73617        14.24006         2.28818
H         41.60095        13.30251         3.06431
H         43.92488        59.43243         1.01757
H         41.92884        60.58052         0.20418
H         45.35437        14.86194         1.05115
H         45.54676        58.43679         1.23053
H         47.45983        16.08198         0.75187
H         47.53410        57.32862         2.05548
H         51.12143        18.28239         0.04496
H         49.06987        17.05229         0.46379
H         51.27874        55.03450         2.54308
H         49.22675        56.29878         2.45581
H         52.71258        19.19979        -0.41958
H         52.92115        53.89408         2.57721
H         54.71653        20.39321        -1.05647
H         54.95385        52.76813         1.74886
H         57.92869        22.64975        -3.16025
H         56.09676        21.36679        -2.07907
H         58.14226        49.76413         2.52242
H         56.23266        51.26098         2.43317
H         60.47242        24.31081        -3.26188
H         60.12660        49.34382         1.44405
H         62.49348        25.20817        -2.04587
H         62.27401        27.32704        -0.77153
H         62.26406        29.26938        -1.00692
H         62.12978        31.68165        -1.05269
H         62.11830        33.48216        -0.10378
H         62.11351        35.93098        -0.17437
H         62.06825        37.62321        -1.29180
H         62.05937        39.95771        -2.00461
H         62.19511        42.06265        -1.65813
H         62.16073        44.44255        -1.26031
H         62.17510        46.09833        -0.45606
H         62.21696        48.32988         0.56301
