         638
 CSIRO Nanostructure Databank - Neutral Graphene Oxide Data Set
C         22.97446        27.35182        -0.77097
C         22.93659        28.70696        -0.70397
C         22.99533        31.64642        -0.31212
C         23.00359        33.01319        -0.09249
C         23.05350        35.92624        -0.38304
C         23.05009        37.34504        -0.32680
C         22.99520        40.25052         0.24684
C         23.00286        41.62647         0.37335
C         23.03155        44.54116         0.72738
C         23.05477        45.90776         0.91284
C         25.41453        24.51211        -0.79604
C         24.22390        25.20355        -0.84274
C         25.43890        27.31191        -0.96348
C         24.21393        26.62210        -0.91106
C         25.44846        28.76719        -1.15159
C         24.12226        29.51981        -1.01348
C         25.41144        31.65102        -0.62858
C         24.18524        30.96153        -0.63990
C         25.44128        33.03431        -0.28896
C         24.21070        33.74060        -0.10483
C         25.40029        35.90438         0.35766
C         24.17749        35.19308        -0.04956
C         25.45340        37.37690         0.16585
C         24.19997        38.07196        -0.06697
C         25.40473        40.24722        -0.07619
C         24.19873        39.53567         0.01838
C         25.42723        41.66757         0.04387
C         24.20434        42.37070         0.28522
C         25.45023        44.51312         0.35711
C         24.22098        43.80841         0.45380
C         25.48188        45.93115         0.54730
C         24.27256        46.62963         0.83577
C         25.49982        48.72771         0.98877
C         24.31420        48.03865         1.04805
C         27.93536        23.06024        -0.43116
C         27.91397        24.48694        -0.67615
C         26.66373        25.19236        -0.76200
C         27.90860        27.34548        -0.78100
C         26.67395        26.61722        -0.83847
C         27.89606        28.79656        -0.81365
C         26.70597        29.49823        -0.95887
C         27.95642        31.67951        -0.78549
C         26.67149        30.99301        -1.17885
C         27.92480        33.09114        -0.50056
C         26.70332        33.72736        -0.20361
C         27.98691        35.87340         0.29855
C         26.71126        35.10376         0.33329
C         27.94046        37.39053         0.24070
C         26.64484        38.06840         0.08707
C         27.92916        40.24394        -0.16609
C         26.65235        39.48931        -0.45603
C         27.91509        41.66062        -0.12812
C         26.66189        42.38748        -0.05701
C         27.88407        44.53641        -0.04352
C         26.67347        43.80736         0.07680
C         27.91986        45.94327         0.15376
C         26.71031        46.65325         0.46668
C         27.97155        48.78020         0.63937
C         26.73645        48.06561         0.69855
C         28.05897        50.19929         0.87166
C         30.38960        22.96614        -0.56421
C         29.08377        22.35286        -0.29593
C         30.40259        24.48278        -0.74056
C         29.11984        25.20897        -0.69429
C         30.38810        27.35333        -0.63227
C         29.13202        26.63879        -0.69901
C         30.35886        28.77953        -0.69185
C         29.15688        29.50709        -0.75680
C         30.41938        31.66779        -0.62429
C         29.15761        30.95658        -0.75053
C         30.42498        33.14766        -0.92632
C         29.16556        33.84121        -0.47063
C         30.43577        35.95175        -0.22191
C         29.19624        35.19110        -0.20012
C         30.42701        37.35067        -0.08439
C         29.14331        38.07871        -0.38200
C         30.35196        40.24443         0.15917
C         29.14877        39.55367        -0.06686
C         30.36966        41.65828         0.02536
C         29.14859        42.35480        -0.14844
C         30.38474        44.54824        -0.15953
C         29.12303        43.81886        -0.50251
C         30.38653        45.93103        -0.06070
C         29.14778        46.66254         0.06736
C         30.40251        48.77967         0.21330
C         29.18734        48.08358         0.30437
C         30.55749        50.20990         0.63563
C         29.23783        50.87552         0.86645
C         32.85624        20.20435         0.15569
C         31.66596        20.89212        -0.04176
C         32.82949        23.04260         0.05246
C         31.64173        22.29208        -0.14555
C         32.79390        24.48483        -0.01844
C         31.64177        25.20371        -0.39179
C         32.85096        27.33744        -0.21858
C         31.61529        26.63535        -0.41599
C         32.90334        28.79541        -0.43335
C         31.62803        29.52903        -0.67969
C         32.90087        31.68132        -0.41568
C         31.61087        30.99489        -0.49409
C         32.90196        33.14229        -0.43456
C         31.69695        33.83870        -0.48757
C         32.88469        35.96482        -0.06033
C         31.67449        35.25031        -0.27082
C         32.83954        37.36323         0.19986
C         31.62740        38.05321         0.16786
C         32.87946        40.24745         0.40852
C         31.58352        39.49762         0.62287
C         32.83910        41.69679         0.28725
C         31.63832        42.35961         0.05678
C         32.82024        44.55130         0.32785
C         31.68136        43.81533        -0.36892
C         32.85825        46.00965        -0.05752
C         31.63807        46.66138        -0.12615
C         32.85996        48.85645        -0.35089
C         31.55845        48.11144        -0.48942
C         32.84435        50.24068        -0.35870
C         31.50629        50.95712        -0.40881
C         32.80643        53.05566         0.01533
C         31.62146        52.41710        -0.09849
C         35.38439        18.72824         0.31215
C         35.33606        20.17872         0.38324
C         34.07808        20.89248         0.27840
C         35.29906        23.01835         0.41566
C         34.06684        22.32897         0.28319
C         35.30995        24.47264         0.59019
C         33.97983        25.24508         0.40568
C         35.28513        27.41633         0.21693
C         34.03368        26.68768         0.12006
C         35.32129        28.79901         0.20037
C         34.01579        29.55515         0.25788
C         35.40429        31.66083        -0.45152
C         34.07457        30.99226        -0.20158
C         35.38066        33.14372        -0.17464
C         34.14494        33.84775        -0.22824
C         35.36099        35.99275        -0.00775
C         34.12838        35.25572        -0.06737
C         35.33001        37.38204         0.16333
C         34.08806        38.06255         0.67961
C         35.34024        40.25653         0.43899
C         34.07774        39.55905         0.43252
C         35.33344        41.71264         0.79748
C         34.09204        42.43605         0.34496
C         35.37027        44.53545         0.17047
C         34.12800        43.81134         0.21469
C         35.35830        45.93836        -0.41348
C         34.08546        46.71361        -0.20129
C         35.33397        48.85137        -0.37148
C         34.09644        48.12308        -0.31471
C         35.32717        50.25758        -0.35358
C         34.08160        50.97337        -0.29033
C         35.32019        53.09846        -0.14901
C         34.07703        52.37586        -0.13521
C         35.38396        54.48603         0.08744
C         37.83182        18.70105         0.19421
C         36.55540        18.03961         0.16802
C         37.83668        20.13372         0.68346
C         36.53412        20.88157         0.46417
C         37.75825        23.05617         0.51226
C         36.54428        22.32076         0.45554
C         37.76767        24.47894         0.46504
C         36.56992        25.19509         0.44559
C         37.72672        27.38322         0.82042
C         36.59772        26.66621         0.10409
C         37.76208        28.85749         0.64454
C         36.56417        29.54636         0.31586
C         37.79740        31.67335         0.34447
C         36.59737        30.95435         0.15291
C         37.83070        33.13139         0.22805
C         36.59754        33.83843        -0.01488
C         37.83886        35.95689         0.08111
C         36.61069        35.27211        -0.02929
C         37.87803        37.40600        -0.10436
C         36.52120        38.16649        -0.07436
C         37.81482        40.27627         0.37998
C         36.54333        39.59738         0.27334
C         37.82075        41.72431         0.43418
C         36.61644        42.42714         0.46853
C         37.85888        44.58266         0.29162
C         36.57453        43.84911         0.29590
C         37.87065        46.06855         0.07839
C         36.59532        46.76175        -0.16513
C         37.84896        48.86689        -0.42651
C         36.59409        48.13091        -0.33217
C         37.83021        50.26562        -0.49343
C         36.56962        50.99108        -0.40455
C         37.78732        53.16979        -0.72788
C         36.55053        52.38304        -0.36604
C         37.81758        54.57143        -0.16623
C         36.60735        55.18028         0.13757
C         40.28682        15.97649        -0.37235
C         39.12585        16.66039        -0.41051
C         40.30973        18.79631         0.07822
C         39.04228        18.06052        -0.01932
C         40.30489        20.20182         0.11401
C         38.97922        20.92185         0.03956
C         40.24291        23.11750         0.00221
C         39.08093        22.33703         0.63969
C         40.24541        24.53605         0.52341
C         39.05268        25.18586         0.62217
C         40.29317        27.36586         1.11938
C         38.99607        26.60995         1.05210
C         40.24658        28.85174         0.95996
C         38.96739        29.56209         0.74285
C         40.27054        31.67968         0.70164
C         39.00484        30.97129         0.61130
C         40.24054        33.15124         1.00173
C         39.00995        33.84068         0.46756
C         40.28013        35.99024         0.48855
C         39.04570        35.26421         0.36372
C         40.28083        37.41474         0.47021
C         39.08055        38.14623         0.28320
C         40.26383        40.29298         0.86227
C         39.02337        39.55836         0.41780
C         40.30100        41.72023         0.35732
C         39.09272        42.42305         0.27703
C         40.30070        44.52824        -0.17524
C         39.10779        43.83592         0.09174
C         40.27678        45.95302        -0.46963
C         39.11774        46.71129        -0.37539
C         40.29459        48.85431        -0.75993
C         39.09575        48.14820        -0.56265
C         40.31104        50.28700        -0.66035
C         39.06956        50.99675        -0.55733
C         40.28711        53.12457        -0.50568
C         39.07397        52.41043        -0.53890
C         40.29599        54.56454        -0.37726
C         39.07789        55.28194        -0.15690
C         40.35564        57.35191         0.06454
C         39.13929        56.67499         0.06317
C         42.79856        15.97413        -0.36458
C         41.54126        16.59203         0.18621
C         42.76468        18.80293         0.00732
C         41.54061        18.09550         0.05524
C         42.76372        20.22695         0.08195
C         41.52182        20.94024         0.13451
C         42.75711        23.07087         0.30919
C         41.53433        22.36360         0.20967
C         42.77793        24.47797         0.50777
C         41.53632        25.15822         1.02175
C         42.73222        27.32381         0.58496
C         41.55666        26.65042         0.81043
C         42.73323        28.78603         0.32280
C         41.45852        29.54836         0.43635
C         42.75366        31.69597         0.59622
C         41.47804        31.01683         0.60496
C         42.75447        33.13074         0.63165
C         41.53498        33.85961         0.66858
C         42.77176        35.98848         0.52987
C         41.52509        35.26703         0.58151
C         42.78025        37.40432         0.52378
C         41.53660        38.14862         0.56148
C         42.80872        40.30218         0.82482
C         41.53600        39.52968         0.61402
C         42.77840        41.70649         0.26901
C         41.53869        42.40036         0.15903
C         42.76800        44.44985        -0.44182
C         41.53389        43.79392        -0.18064
C         42.77930        45.82866        -0.96259
C         41.48808        46.59049        -1.02638
C         42.82518        48.84973        -1.24337
C         41.51151        48.10648        -1.14983
C         42.81357        50.32477        -0.97497
C         41.52755        51.01491        -0.69621
C         42.77425        53.15698        -0.60382
C         41.52945        52.41900        -0.57736
C         42.76895        54.54623        -0.58056
C         41.53371        55.25985        -0.40466
C         42.83067        57.35622        -0.09040
C         41.55748        56.66744        -0.16744
C         43.94553        16.67540        -0.48002
C         45.22134        18.80991        -0.21661
C         44.01272        18.10376        -0.20844
C         45.23522        20.23491         0.01715
C         43.99626        20.94393         0.08742
C         45.23467        23.07083         0.21116
C         44.00383        22.35982         0.20440
C         45.23558        24.49686         0.27838
C         43.99474        25.19620         0.43423
C         45.21050        27.35051         0.35832
C         43.99537        26.62746         0.47933
C         45.20149        28.81518         0.40047
C         44.00575        29.53109         0.41703
C         45.22828        31.67256         0.59907
C         43.97247        30.96695         0.51735
C         45.22874        33.11564         0.59959
C         44.00635        33.83381         0.56948
C         45.24033        35.96959         0.42198
C         44.00387        35.26352         0.51747
C         45.24891        37.39210         0.35729
C         44.01987        38.11895         0.45041
C         45.25223        40.23810         0.25167
C         44.04041        39.53406         0.44183
C         45.24925        41.66339         0.11435
C         43.99253        42.37028         0.03151
C         45.23545        44.49437        -0.30944
C         43.98987        43.76182        -0.32082
C         45.24953        45.88445        -0.35819
C         44.10411        46.60005        -0.92088
C         45.17789        48.82234        -0.24669
C         44.19264        48.11130        -1.16527
C         45.26711        50.30276        -0.33843
C         44.06131        51.02984        -0.59044
C         45.22966        53.15148        -0.22032
C         44.03433        52.43356        -0.50176
C         45.28872        54.55098        -0.38006
C         44.05352        55.30702        -0.84358
C         43.99862        56.72698        -0.33451
C         47.66426        18.83087        -0.39995
C         46.49143        18.18579        -0.56150
C         47.72274        20.15187         0.32913
C         46.45589        20.94309         0.11577
C         47.71612        23.08850         0.13404
C         46.47274        22.35381         0.16406
C         47.71154        24.49624         0.13153
C         46.46035        25.22336         0.21967
C         47.69615        27.41130        -0.04080
C         46.43418        26.64050         0.24638
C         47.66248        28.81454         0.51103
C         46.45951        29.52822         0.52289
C         47.71048        31.69789         0.99703
C         46.43739        30.95806         0.65401
C         47.70600        33.13807         0.58112
C         46.47754        33.82910         0.53494
C         47.70632        35.95433         0.28436
C         46.47259        35.25227         0.40049
C         47.71377        37.37773         0.19306
C         46.48325        38.09648         0.24424
C         47.71753        40.22508         0.05078
C         46.48548        39.51875         0.16872
C         47.71502        41.64977        -0.02655
C         46.47668        42.36198        -0.02638
C         47.71252        44.48842        -0.21145
C         46.48913        43.78654        -0.13639
C         47.72336        45.93592        -0.11962
C         46.42503        46.55908         0.31495
C         47.67071        48.80711         0.28687
C         46.38781        48.07650         0.25004
C         47.66300        50.21629         0.28646
C         46.43208        50.94325         0.08519
C         47.72450        53.11348         0.18425
C         46.40278        52.41952         0.38175
C         47.72602        54.47204        -0.08199
C         46.53004        55.19440        -0.30412
C         50.20732        20.27064         0.01985
C         48.98366        20.94522         0.08174
C         50.19694        23.07709        -0.02001
C         48.96482        22.36086         0.05774
C         50.19581        24.51086         0.04736
C         48.96180        25.22066         0.11162
C         50.19650        27.31672         0.29691
C         48.97578        26.63861         0.20121
C         50.22791        28.75986         0.62060
C         48.93632        29.51556         0.75145
C         50.17180        31.65078         0.43731
C         48.97455        30.97855         0.62206
C         50.17950        33.09622         0.31989
C         48.93862        33.81385         0.38522
C         50.16505        35.93591         0.06561
C         48.93537        35.23553         0.24252
C         50.17680        37.36797        -0.01006
C         48.94986        38.08182         0.06864
C         50.18229        40.22074        -0.06316
C         48.94793        39.50882         0.01312
C         50.17786        41.64332        -0.12054
C         48.94684        42.35986        -0.12715
C         50.18836        44.49351        -0.33111
C         48.95051        43.78340        -0.22298
C         50.15118        45.99103        -0.62967
C         48.88709        46.65862        -0.13333
C         50.12396        48.76480         0.33128
C         48.90044        48.08499         0.16891
C         50.13306        50.18835         0.51149
C         48.91206        50.92306         0.40952
C         50.16622        53.00388         0.62694
C         48.94330        52.35623         0.40701
C         51.40748        20.96349        -0.10789
C         52.68151        23.10196        -0.22068
C         51.43010        22.36894        -0.12756
C         52.67894        24.51815        -0.10755
C         51.43452        25.22155         0.03679
C         52.68194        27.36531         0.18030
C         51.43702        26.63336         0.18075
C         52.69004        28.79959         0.25180
C         51.46281        29.52317         0.37268
C         52.65761        31.65043         0.18227
C         51.43017        30.92335         0.32513
C         52.65502        33.06899         0.03098
C         51.39051        33.79175         0.06469
C         52.58818        35.93468        -0.44271
C         51.36902        35.20303        -0.06912
C         52.63988        37.39426        -0.28071
C         51.41661        38.08545        -0.11831
C         52.65368        40.22844        -0.12563
C         51.41597        39.51387        -0.10815
C         52.63742        41.64574        -0.08204
C         51.41411        42.35442        -0.14973
C         52.67912        44.46806        -0.50604
C         51.38668        43.78596        -0.29809
C         52.67173        46.05166        -0.42744
C         51.40014        46.71330        -0.17930
C         52.63598        48.69602         0.54477
C         51.38666        48.03097         0.25756
C         52.65239        50.14764         0.99600
C         51.35803        50.88547         0.72749
C         51.34407        52.27421         0.82286
C         55.10461        23.14421        -0.47241
C         53.91392        22.44029        -0.40910
C         55.13694        24.54843        -0.32758
C         53.91031        25.24215        -0.13369
C         55.14717        27.38917         0.05280
C         53.90536        26.67167         0.02855
C         55.15920        28.80090         0.21521
C         53.91649        29.51249         0.24556
C         55.11546        31.67718         0.24841
C         53.89723        30.95033         0.21940
C         55.12669        33.07860         0.08493
C         53.88437        33.74955        -0.09721
C         55.15486        35.93626        -0.39610
C         53.89778        35.17284        -0.46318
C         55.12758        37.36285        -0.44980
C         53.88523        38.08615        -0.33656
C         55.14039        40.23294        -0.25062
C         53.89595        39.50910        -0.21194
C         55.16164        41.63866        -0.14346
C         53.90962        42.37675         0.25732
C         55.12877        44.52331        -0.19039
C         53.92126        43.80953        -0.19324
C         55.12781        45.95673        -0.08298
C         53.91793        46.67852        -0.01574
C         55.13337        48.76452         0.79538
C         53.85211        48.02987         0.44064
C         55.02697        50.18196         0.27833
C         53.85784        50.82577         0.36038
C         57.61703        24.64433        -0.63017
C         56.39032        25.28293        -0.36280
C         57.61224        27.41283        -0.08338
C         56.38286        26.69044        -0.12367
C         57.61662        28.80957         0.25013
C         56.40597        29.49698         0.37273
C         57.66162        31.76209         0.57688
C         56.36203        30.96338         0.58167
C         57.62426        33.14738         0.06084
C         56.38024        33.81112        -0.06277
C         57.59633        35.89994        -0.85432
C         56.35692        35.21136        -0.35332
C         57.60597        37.39018        -0.60687
C         56.37123        38.09166        -0.49019
C         57.61018        40.23126        -0.46400
C         56.37532        39.51310        -0.40956
C         57.61694        41.66139        -0.38686
C         56.37846        42.36854        -0.23701
C         57.61026        44.51126        -0.18680
C         56.38088        43.79671        -0.17212
C         57.60804        45.94160        -0.03840
C         56.38230        46.65685         0.09869
C         57.63290        48.71304         0.47065
C         56.39906        48.04027         0.38072
C         58.80997        25.35992        -0.65725
C         60.07913        27.46535        -0.38223
C         58.83085        26.73392        -0.37265
C         60.13472        28.76293        -0.00887
C         58.92707        29.48248         0.43967
C         60.16611        31.77073         0.22073
C         58.96013        31.00771         0.58178
C         60.10814        33.08249        -0.09891
C         58.86452        33.82775        -0.20209
C         60.07835        35.96181        -0.62737
C         58.87998        35.19671        -0.51248
C         60.05550        37.32907        -0.73752
C         58.82799        38.08561        -0.65932
C         60.05139        40.26639        -0.65351
C         58.84046        39.51951        -0.59229
C         60.05428        41.63879        -0.57661
C         58.84588        42.37990        -0.43121
C         60.06378        44.56541        -0.29472
C         58.84844        43.81316        -0.30845
C         60.06513        45.92783        -0.12987
C         58.84072        46.65005         0.02377
C         58.83100        48.04407         0.26107
O         52.72583        45.31822        -1.69827
O         37.22447        37.86666        -1.32548
O         53.16830        35.45491        -1.71741
O         34.47825        24.91187         1.74125
O         40.41877        28.25619         2.29131
O         56.92682        31.52434         1.81976
O         43.60690        45.95404        -2.15209
O         32.57217        29.18429        -1.79475
O         41.91985        29.10584        -0.88666
O         24.68261        29.23211        -2.34387
O         37.95342        45.51199         1.45619
O         25.97342        35.31605         1.57215
O         41.26907        47.24115        -2.31411
O         59.11672        30.14404         1.74261
O         38.05994        26.88192         2.14571
O         49.65497        29.02389         1.97084
O         42.82649        49.78396        -2.36390
O         45.28528        48.48061         1.17182
O         28.21243        36.70101         1.48964
O         30.51654        23.57967        -1.89410
O         34.07743        37.91081         2.14018
H         33.23829        38.32587         2.45540
O         46.32341        46.21121         1.73498
H         45.71458        46.86839         2.14378
O         31.22686        48.15004        -1.94727
H         30.43305        47.58573        -2.07310
O         31.31575        50.27281         1.88652
H         30.78339        49.82651         2.57828
O         38.03578        20.05305         2.13139
H         37.29715        19.52559         2.50261
O         57.49286        35.76332        -2.33862
H         56.64036        36.17254        -2.60424
O         35.24196        41.73768         2.27924
H         35.41414        42.66021         2.56534
O         44.82785        48.24776        -2.45289
H         44.26548        47.77401        -3.10535
O         46.16858        52.49277         1.85734
H         46.22119        53.44079         2.10604
O         35.62287        31.53599        -1.90981
H         34.84724        31.93375        -2.35988
O         44.18261        55.40682        -2.30377
H         43.35434        55.80504        -2.64552
O         42.90767        40.49436         2.31189
H         43.14645        39.62273         2.69634
O         47.74675        31.71937         2.48505
H         48.05380        30.83408         2.78155
O         39.43864        22.27758         2.03548
H         38.86833        21.60093         2.47339
O         40.15379        40.40531         2.32774
H         41.05078        40.67523         2.64981
O         41.53550        16.28894         1.62906
H         42.32489        16.72144         2.01830
O         36.97249        26.73140        -1.31475
H         36.19658        26.47148        -1.85475
O         32.48456        44.52088         1.75173
H         33.17623        45.01699         2.23742
O         53.93518        42.41784         1.74390
H         53.98682        41.48932         2.05717
O         47.70238        27.61228        -1.51802
H         46.82954        27.98888        -1.76355
O         52.82283        50.18151         2.43963
H         53.70227        49.76692         2.63558
O         29.09491        43.83093        -2.01108
H         28.74106        44.70513        -2.28360
O         26.57472        31.17849        -2.63839
H         25.83404        30.59379        -2.93920
O         33.61557        29.58897         1.66923
H         34.37040        29.93021         2.19378
O         26.61071        39.35702        -1.93651
H         25.74314        38.96126        -2.17001
O         38.59797        20.99986        -1.35428
H         39.16426        21.68338        -1.78745
O         40.03507        23.21243        -1.44414
H         40.81492        23.66133        -1.83344
O         30.90995        50.85435        -1.71122
H         30.99004        49.91361        -2.01855
O         31.92640        43.81901        -1.80224
H         31.07252        43.58166        -2.23814
O         55.20579        48.84966         2.26464
H         55.28622        47.93475         2.60879
O         41.55000        24.94196         2.47352
H         40.76104        25.38682         2.85202
O         28.99125        37.96485        -1.82948
H         28.21325        38.51670        -2.10184
O         35.40771        45.67873        -1.87585
H         35.14304        46.50447        -2.33551
O         37.68624        53.36696        -2.19647
H         36.84493        53.84342        -2.36421
O         50.11131        46.10703        -2.09036
H         50.98821        45.78564        -2.41433
O         31.46598        39.39736         2.09664
H         31.43563        40.31210         2.45163
O         30.41056        33.23018        -2.39458
H         31.12384        32.64964        -2.73493
O         40.11389        33.25503         2.47213
H         40.88221        32.79043         2.86736
O         47.75613        19.81962         1.76404
H         46.92280        19.34555         1.97123
H         22.05758        26.77103        -0.59119
H         21.99660        29.20435        -0.42845
H         22.03669        31.11250        -0.29121
H         22.05432        33.52996         0.10195
H         22.13005        35.41694        -0.69119
H         22.10806        37.86739        -0.54324
H         22.04563        39.70716         0.34458
H         22.04889        42.13821         0.55615
H         22.06884        44.01846         0.80079
H         22.12343        46.45043         1.13004
H         25.38484        23.41517        -0.77222
H         23.26809        24.66061        -0.83014
H         25.48999        49.81127         1.16578
H         23.37753        48.57049         1.26959
H         26.98399        22.54481        -0.24380
H         27.13955        50.76186         1.08700
H         29.03699        21.30800         0.04151
H         29.24108        51.94650         1.11780
H         32.82636        19.10779         0.17333
H         30.74158        20.31660        -0.18411
H         32.80273        54.13950         0.19768
H         30.68967        52.99910        -0.04305
H         34.44482        18.16080         0.29371
H         34.46879        55.05020         0.30832
H         36.51453        16.95037         0.02390
H         36.57962        56.23617         0.44159
H         40.31887        14.91896        -0.67562
H         38.21340        16.15764        -0.76327
H         40.37879        58.43493         0.25275
H         38.21810        57.24748         0.23502
H         42.79124        14.89364        -0.57440
H         42.82275        58.41729         0.20290
H         44.85738        16.15650        -0.80851
H         44.93680        57.29699        -0.27269
H         48.59851        18.33534        -0.70065
H         46.48650        17.18436        -1.01502
H         48.67630        55.01716        -0.17141
H         46.60922        56.26921        -0.51422
H         50.23556        19.17480         0.08826
H         50.20949        54.09995         0.68337
H         52.34121        20.38871        -0.15829
H         52.27035        52.81873         1.05182
H         56.03526        22.58178        -0.62288
H         53.94714        21.34825        -0.51600
H         55.90918        50.66499        -0.16761
H         53.76904        51.85679        -0.01383
H         57.64862        23.56715        -0.83921
H         57.64860        49.78360         0.71889
H         59.75287        24.84335        -0.88697
H         60.99446        26.92987        -0.67414
H         61.10243        29.28034         0.03742
H         61.14236        31.27212         0.29172
H         61.04946        33.60165        -0.32139
H         61.05639        35.46333        -0.58404
H         61.01328        37.85978        -0.81315
H         61.01250        39.74804        -0.76506
H         61.01742        42.16309        -0.62836
H         61.02657        44.04828        -0.40120
H         61.01534        46.48056        -0.10297
H         59.78469        48.58773         0.32022
