         220
 CSIRO Nanostructure Databank - Neutral Graphene Oxide Data Set
C        -11.23697         0.60695         0.09649
C        -10.00604         1.36151         0.16173
C         -8.78603         0.60205         0.26721
C         -7.54628         1.36515         0.44226
C         -6.24451         0.62907         0.53572
C         -5.02271         1.35865         0.09632
C         -3.76235         0.62802         0.35391
C         -2.49081         1.24221        -0.10942
C         -1.22572         0.63677         0.31022
C         -0.05126         1.34311         0.19616
C          1.20832         0.63469         0.27394
C          2.41325         1.33571         0.31364
C          3.62593         0.65894         0.05588
C          4.87452         1.44933         0.05760
C          6.20655         0.73029        -0.12070
C          7.38011         1.34642         0.51279
C          8.71414         0.63611         0.68137
C          9.89486         1.43677         0.09954
C         11.05774         0.63894        -0.25219
C         -9.97587         2.75923         0.14531
C         -8.74104         3.50666         0.12000
C         -7.54681         2.79790         0.12753
C         -6.23066         3.51757         0.19437
C         -5.02954         2.68337        -0.21971
C         -3.79611         3.36985        -0.71622
C         -2.47909         2.64499        -0.63995
C         -1.20245         3.39420        -0.56148
C         -0.05319         2.76509        -0.12781
C          1.17292         3.51414         0.11891
C          2.33450         2.77910         0.75429
C          3.62599         3.54251         0.65828
C          4.86145         2.82127         0.62113
C          6.07939         3.44645         0.87335
C          7.23958         2.60896         1.01289
C          9.03337         3.74496         0.61870
C          9.98565         2.81172         0.02050
C         -8.71486         4.96948         0.14560
C         -7.54231         5.68290         0.01827
C         -6.32585         4.91468        -0.37595
C         -5.06648         5.63385        -0.71465
C         -3.78699         4.85571        -0.92196
C         -2.46298         5.59840        -1.01201
C         -1.16674         4.83050        -0.94654
C          0.17772         5.56294        -0.88814
C          1.22199         4.87414        -0.03762
C          2.40709         5.63835         0.31714
C          3.60702         4.93361         0.72016
C          4.83533         5.65786         1.13041
C          6.15535         4.89204         1.20190
C          7.51030         5.66452         1.13765
C          8.58944         4.98471         0.28406
C         -7.43666         7.12658         0.03596
C         -6.23994         7.80225        -0.10898
C         -4.96522         7.05232        -0.27271
C         -3.65173         7.76997        -0.36720
C         -2.41254         7.06922        -0.79363
C         -1.20809         7.74208        -0.76243
C          0.05965         7.05291        -0.63796
C          1.23311         7.73741        -0.33332
C          2.41516         7.01687         0.09521
C          3.70695         7.72750         0.15688
C          4.82217         7.20936         1.11859
C          6.16499         7.81281         0.71663
C          7.32164         7.10928         0.69833
C         -6.11962         9.23832         0.00653
C         -4.92709         9.90265        -0.06752
C         -3.65161         9.25108        -0.31811
C         -2.48537         9.92917        -0.49609
C         -1.20448         9.25140        -0.91880
C          0.04755         9.90815        -0.41271
C          1.24635         9.20837        -0.29095
C          2.46614         9.90410        -0.09697
C          3.74701         9.24339        -0.04851
C          4.99591         9.94882         0.31085
C          6.14013         9.26716         0.54962
C        -11.23094        -0.75797         0.08586
C        -10.00269        -1.52160         0.11637
C         -8.75663        -0.79186         0.21967
C         -7.50634        -1.53541         0.23497
C         -6.25450        -0.85310         0.39495
C         -5.05605        -1.56690         0.43223
C         -3.79162        -0.83912         0.69623
C         -2.48750        -1.59632         0.74980
C         -1.20463        -0.81499         0.56803
C          0.00832        -1.49888         0.12372
C          1.20106        -0.78566         0.05862
C          2.43286        -1.47786        -0.20293
C          3.63262        -0.73380        -0.21773
C          4.89965        -1.47123        -0.43557
C          6.21436        -0.75171        -0.32180
C          7.46030        -1.49277         0.00388
C          8.66675        -0.79771         0.17631
C          9.88446        -1.51040         0.02377
C         11.09143        -0.72112        -0.16851
C         -9.99622        -2.90594         0.04595
C         -8.76987        -3.66030        -0.02569
C         -7.50838        -2.93268         0.05838
C         -6.27262        -3.66349        -0.01271
C         -5.02386        -2.97926         0.18986
C         -3.80447        -3.69484         0.08329
C         -2.46912        -3.11191         0.49550
C         -1.36245        -3.57091        -0.47700
C         -0.05380        -2.79487        -0.62656
C          1.20377        -3.61503        -0.46715
C          2.41852        -2.91602        -0.35256
C          3.68745        -3.61859        -0.28142
C          4.87358        -2.93675        -0.22916
C          6.16143        -3.62760         0.02177
C          7.44586        -2.90651        -0.04563
C          8.66123        -3.64222        -0.07725
C          9.87281        -2.90808        -0.11708
C         -8.77801        -5.03374        -0.17367
C         -7.53941        -5.80172        -0.54400
C         -6.26751        -5.06145        -0.21686
C         -5.05015        -5.77688        -0.24112
C         -3.80366        -5.08836        -0.15797
C         -2.57594        -5.82729        -0.36429
C         -1.35518        -5.04778        -0.68786
C         -0.05945        -5.74681        -0.80015
C          1.14186        -5.02886        -0.68825
C          2.44432        -5.71146        -0.87059
C          3.64367        -5.12696        -0.15135
C          4.94910        -5.78199        -0.58323
C          6.19084        -5.12989        -0.08068
C          7.48398        -5.82647        -0.27127
C          8.64934        -5.08706        -0.19601
C         -7.49082        -7.23549        -0.08078
C         -6.29920        -7.91305        -0.01057
C         -5.03875        -7.21088        -0.21765
C         -3.82164        -7.90086        -0.24669
C         -2.58170        -7.20461        -0.47546
C         -1.36612        -8.01944        -0.92100
C         -0.06854        -7.18334        -0.94270
C          1.12325        -7.80376        -1.24606
C          2.46158        -7.19599        -1.16036
C          3.65887        -7.99446        -0.76508
C          4.96544        -7.28150        -0.82086
C          6.22193        -7.96424        -0.43167
C          7.41582        -7.26772        -0.32252
C         -6.22587        -9.32919         0.29532
C         -5.03298        -9.98646         0.33988
C         -3.78404        -9.31284         0.06769
C         -2.55807        -9.93536         0.24335
C         -1.29803        -9.34189        -0.11282
C         -0.15967       -10.06399         0.21542
C          1.15719        -9.76876        -0.29215
C          2.39237        -9.92477         0.27767
C          3.61468        -9.25409        -0.17549
C          4.87065        -9.91734         0.13501
C          6.09767        -9.34839        -0.05587
O         -4.10715         7.15865         0.92054
O          8.00601         5.73656         2.49210
H          7.22459         5.90750         3.06609
O         -5.98002         3.76539         1.62281
H         -6.16379         2.91017         2.08997
O         -6.02006         5.26998        -1.76056
O          5.10790        -6.30217        -1.91437
O          2.04155         2.70056         2.19416
H          2.20286         3.58546         2.58666
O         -2.47129         1.49743        -1.56386
O          8.98368         0.51047         2.10692
H          8.99700         1.42844         2.46745
O         -1.75055        -4.08846        -1.78106
O         -7.59379        -5.87848        -2.02873
H         -7.52504        -4.96059        -2.36854
O          8.33393         3.15198         1.70855
O          6.04942        -4.50604         1.23791
O         -2.22481        -3.76761         1.71290
O         -1.12794         9.47055        -2.38248
H         -0.32780         9.00471        -2.70880
O         -1.70132        -1.22539         1.90250
O         -1.63613        -8.41466        -2.29060
H         -0.86127        -8.93461        -2.59817
O          1.11605        -9.15863        -1.57576
O          3.46470        -5.45101         1.25242
H          4.24789        -5.08217         1.73062
O         -6.85529         1.12771         1.77877
O          5.68096        -1.11999        -1.63909
O          2.66956        -6.18533        -2.21648
O         -3.96266         3.94967        -2.04970
O         -0.00411        -2.32006        -2.01656
H         -0.51314        -2.98406        -2.54719
O          4.04285         8.23051        -1.13580
O          4.50844         7.63019         2.39728
O          0.74785         5.46835        -2.23424
H         -0.01394         5.47344        -2.86097
O          5.60561         1.45069        -1.23152
O         -3.81383         0.17957         1.74645
O          5.37880         5.17608         2.40011
O         -1.78115         5.15934        -2.24110
H         12.03187        -1.25514        -0.37086
H         11.97631         1.18220        -0.52435
H         10.88918         3.23622        -0.44963
H          9.02744         5.53553        -0.56059
H          8.25751         7.65573         0.49108
H          7.08199         9.81819         0.69681
H          4.99241        11.04847         0.28077
H          2.42606        10.98253         0.12250
H          0.07135        11.00922        -0.40050
H         -2.48246        11.02990        -0.46552
H         -4.91894        10.99832         0.03341
H         -7.04159         9.81470         0.17676
H         -8.35502         7.70967         0.21034
H         -9.66569         5.49835         0.31340
H        -10.92619         3.31283         0.11089
H        -12.18927         1.15544         0.05072
H        -12.18110        -1.30995         0.03133
H        -10.94998        -3.45148        -0.01743
H         -9.74364        -5.55993        -0.23572
H         -8.43939        -7.77171         0.07710
H         -7.16332        -9.86974         0.49359
H         -5.00280       -11.05869         0.58471
H         -2.53905       -10.96325         0.63933
H         -0.27612       -10.93053         0.88704
H          2.47969       -10.52331         1.19713
H          4.81207       -10.94595         0.51947
H          7.00994        -9.91525         0.18076
H          8.33907        -7.83295        -0.12099
H          9.61908        -5.60073        -0.27993
H         10.82383        -3.44521        -0.25021
