         424
 CSIRO Nanostructure Databank - Neutral Graphene Oxide Data Set
C          1.21242         2.11787        -1.03602
C          1.18803         3.51420        -1.00006
C          2.40940         1.41935        -0.91380
C          2.38043         4.26119        -0.82681
C          1.21845         6.50118        -1.10190
C          1.18793         7.85138        -0.97885
C          2.39469         5.70025        -0.81005
C          2.36088         8.60972        -0.39602
C          1.27147        10.84677        -0.85667
C          1.31298        12.22891        -1.01597
C          2.44477        10.08767        -0.75209
C          2.54161        12.91674        -1.11398
C          1.42304        15.15107        -1.12755
C          1.46207        16.54228        -1.08098
C          2.59506        14.37935        -1.21725
C          2.69158        17.22294        -1.15611
C          2.75273        18.66804        -1.08464
C          3.63396         2.11858        -0.73894
C          3.61464         3.55223        -0.67979
C          4.86339         1.42816        -0.63986
C          4.83691         4.25760        -0.46794
C          3.61248         6.37310        -0.55823
C          3.63287         7.85489        -0.72136
C          4.81400         5.67769        -0.38424
C          4.93488         8.58533        -0.67301
C          3.69237        10.76459        -0.81791
C          3.73142        12.16466        -1.03977
C          4.94193        10.05420        -0.59514
C          5.06955        12.79889        -1.32935
C          3.85761        15.04803        -1.31788
C          3.88006        16.47151        -1.32219
C          5.08717        14.30471        -1.26023
C          5.13793        17.19441        -1.53093
C          3.93873        19.33847        -1.08929
C          5.19564        18.63935        -1.22202
C          6.08842         2.12077        -0.49804
C          6.07519         3.54684        -0.38721
C          7.33195         1.43119        -0.48920
C          7.32294         4.26866        -0.30681
C          6.05256         6.39544         0.08851
C          6.15418         7.85797        -0.28654
C          7.32389         5.65317        -0.20839
C          7.31059         8.54214        -0.03253
C          6.13926        10.72584        -0.37246
C          6.20041        12.15301        -0.55446
C          7.36662         9.99214        -0.07855
C          7.37488        12.84713        -0.30968
C          6.34055        14.93427        -1.18520
C          6.45479        16.38852        -1.46525
C          7.48440        14.20886        -0.72893
C          7.65331        17.13624        -1.07691
C          6.40406        19.27288        -1.04673
C          7.65031        18.54817        -0.95187
C          8.55676         2.12211        -0.41212
C          8.57527         3.54617        -0.33762
C          9.80621         1.42225        -0.42218
C          9.81520         4.23960        -0.19841
C          8.58894         6.44613        -0.37714
C          8.53500         7.76561         0.39531
C          9.84365         5.66362        -0.08432
C          9.82791         8.53321         0.26844
C          8.55360        10.65982         0.18486
C          8.50974        12.15243         0.42087
C          9.81037         9.94379         0.33361
C          9.85130        12.83341         0.29233
C          8.78979        14.85118        -0.69848
C          8.88662        16.40385        -0.87137
C          9.89898        14.18361         0.00828
C         10.06520        17.11336        -0.36837
C          8.85765        19.23440        -0.68681
C         10.07020        18.54484        -0.39743
C         11.00914         2.08686        -0.31404
C         11.04175         3.51278        -0.15735
C         12.28472         1.28913        -0.43238
C         12.27468         4.21062         0.03771
C         11.03692         6.35354         0.14125
C         11.03975         7.80916         0.26684
C         12.27781         5.63038         0.20823
C         12.27212         8.51167         0.36121
C         11.05356        10.64282         0.44704
C         11.06961        12.09973         0.55824
C         12.26852         9.92724         0.44061
C         12.27699        12.77156         0.77532
C         11.04481        14.97940         0.44829
C         11.18818        16.40581         0.09868
C         12.26844        14.22923         0.95667
C         12.40419        17.07187         0.36093
C         11.28280        19.21475        -0.12108
C         12.46625        18.49862         0.18328
C         13.53606         2.05740        -0.08426
C         13.50780         3.47902         0.08878
C         14.72672         1.36252         0.00233
C         14.72498         4.17053         0.33496
C         13.49984         6.33279         0.42497
C         13.51546         7.77390         0.48752
C         14.72220         5.59279         0.51635
C         14.70799         8.46641         0.77120
C         13.58028        10.66732         0.27275
C         13.55028        12.08950         0.78994
C         14.78618         9.89308         0.74820
C         14.72104        12.74424         1.11161
C         13.54181        14.95677         0.98807
C         13.59117        16.33403         0.75240
C         14.70236        14.19931         1.55191
C         14.84845        17.02346         0.82409
C         13.70966        19.15848         0.33253
C         14.90032        18.43691         0.59792
C         15.96759         2.03075         0.22681
C         15.95721         3.45371         0.39245
C         17.18961         1.33053         0.24749
C         17.18409         4.14693         0.57956
C         15.94350         6.25448         0.80688
C         15.89936         7.68477         1.15315
C         17.17284         5.56281         0.80183
C         17.20365         8.40690         1.39117
C         15.98007        10.58378         0.96799
C         15.99866        12.04158         1.09088
C         17.22953         9.88009         1.21188
C         17.19026        12.71373         1.27465
C         16.01061        14.91441         1.36050
C         16.05632        16.28292         1.08984
C         17.23259        14.14631         1.77911
C         17.32624        16.97653         1.07035
C         16.15032        19.09854         0.62799
C         17.36004        18.39361         0.83942
C         18.41483         2.01100         0.38107
C         18.41551         3.43445         0.54090
C         19.66694         1.32321         0.31421
C         19.65316         4.13993         0.61375
C         18.42529         6.26443         0.93131
C         18.45931         7.66085         1.16741
C         19.65581         5.55987         0.76770
C         19.67854         8.35803         1.16724
C         18.42564        10.53724         1.27560
C         18.50674        12.02316         1.03180
C         19.68540         9.78795         1.66248
C         19.67886        12.64125         1.82218
C         18.54044        14.84954         1.50055
C         18.54351        16.26608         1.27182
C         19.73698        14.14322         1.61541
C         19.78244        16.96580         1.25178
C         18.59918        19.07460         0.82083
C         19.81621        18.38715         1.03000
C         20.87056         2.00370         0.37970
C         20.88837         3.43844         0.53469
C         22.13180         1.31548         0.15952
C         22.11303         4.15160         0.54123
C         20.88962         6.26902         0.72904
C         20.89062         7.68253         0.91027
C         22.12331         5.55769         0.55589
C         22.12701         8.42362         0.79964
C         20.93411        10.54545         1.28155
C         20.95051        11.92965         1.40435
C         22.10749         9.81981         0.91203
C         22.20252        12.65758         1.33352
C         20.99015        14.82245         1.60991
C         21.00608        16.26512         1.48699
C         22.22609        14.09941         1.58355
C         22.21436        16.97677         1.55546
C         21.05547        19.06760         1.02217
C         22.27259        18.39623         1.31552
C         23.32174         1.95968         0.19905
C         23.42349         3.40486         0.63360
C         24.57913         1.26102        -0.25873
C         24.53784         4.12335        -0.15316
C         23.36451         6.30105         0.41499
C         23.35195         7.71334         0.50661
C         24.59236         5.60024         0.17475
C         24.57645         8.45229         0.34952
C         23.29486        10.61599         0.45328
C         23.37496        11.98212         1.07168
C         24.58505         9.85158         0.46101
C         24.70762        12.60828         1.39766
C         23.45604        14.78451         1.54208
C         23.46694        16.23947         1.94963
C         24.68480        14.11171         1.27050
C         24.65618        17.00837         1.42662
C         23.47614        19.12566         1.44765
C         24.76215        18.46225         1.86281
C         25.84786         2.02846         0.03007
C         25.85929         3.39303         0.03192
C         27.10494         1.19842         0.08393
C         27.10874         4.13358         0.09813
C         25.81213         6.28146         0.11990
C         25.82043         7.72810         0.15263
C         27.07938         5.57570         0.05427
C         27.00343         8.42275        -0.07096
C         25.79448        10.60019         0.38165
C         25.87489        11.94910         0.71185
C         26.99128         9.92924        -0.23781
C         27.10565        12.69334         0.56615
C         25.87212        14.80023         1.00570
C         25.86214        16.27117         0.92616
C         27.11316        14.12395         0.73802
C         27.12177        17.00859         0.81741
C         25.91906        19.14446         1.19804
C         27.08411        18.44675         0.81743
C         28.38074         2.00128         0.14870
C         28.33356         3.44449         0.14948
C         29.58314         1.33834         0.19505
C         29.58468         4.16468         0.16432
C         28.28077         6.29488         0.00385
C         28.26281         7.73281        -0.13721
C         29.56678         5.62614         0.07791
C         29.46236         8.42962        -0.29058
C         28.29201        10.53369         0.28977
C         28.30162        12.03448         0.24301
C         29.43233         9.89355        -0.45686
C         29.52756        12.73732         0.08317
C         28.32239        14.84252         0.60853
C         28.33365        16.30138         0.68665
C         29.54725        14.15572         0.30831
C         29.54194        17.01789         0.56431
C         28.30067        19.13665         0.55066
C         29.52544        18.44219         0.45932
C         30.84079         2.04113         0.26763
C         30.79082         3.48370         0.23240
C         32.05075         1.35975         0.33941
C         32.07137         4.24715         0.01395
C         30.73819         6.35111         0.14751
C         30.74214         7.84704         0.21347
C         32.03071         5.68335         0.52481
C         31.99718         8.48254        -0.33929
C         30.68785        10.64910        -0.70546
C         30.73738        12.06864        -0.27933
C         31.96292         9.85685        -0.98835
C         31.95308        12.76481        -0.34939
C         30.77722        14.85228         0.22075
C         30.84752        16.28559         0.68188
C         31.97589        14.17804        -0.10150
C         32.02159        17.03627         0.11870
C         30.75559        19.14221         0.25768
C         31.97293        18.45779         0.06254
C         33.31308         2.05569         0.62922
C         33.30025         3.57717         0.58945
C         34.61293         1.42044         0.53712
C         34.56582         4.31064         0.37161
C         33.28418         6.41518         0.07657
C         33.21847         7.80946        -0.27476
C         34.50343         5.72914         0.07131
C         34.45631         8.51468        -0.55844
C         33.21623        10.64854        -0.70621
C         33.19360        12.05107        -0.59656
C         34.44338         9.93729        -0.71865
C         34.41920        12.78368        -0.66835
C         33.21318        14.90399        -0.24756
C         33.21172        16.34327        -0.18199
C         34.40999        14.21424        -0.55804
C         34.41797        17.07328        -0.45310
C         33.18959        19.16844        -0.19575
C         34.38092        18.50708        -0.40483
C         35.80512         2.17623         0.61190
C         35.77161         3.63951         0.46768
C         37.04112         1.53756         0.73680
C         37.01521         4.35580         0.25100
C         35.73328         6.42586        -0.21623
C         35.69547         7.82516        -0.50489
C         36.97605         5.74165        -0.14326
C         36.92541         8.53166        -0.73377
C         35.67178        10.65989        -0.84062
C         35.64215        12.08750        -0.88886
C         36.90740         9.95922        -0.92018
C         36.84158        12.82026        -1.15280
C         35.61880        14.94747        -0.81058
C         35.61967        16.37820        -0.76684
C         36.79014        14.23551        -1.18778
C         36.82882        17.11617        -1.06004
C         35.64824        19.32151        -0.51329
C         36.84646        18.54673        -1.00386
C         38.27203         2.33278         1.04542
C         38.24028         3.70183         0.40448
C         39.55007         1.58385         0.79261
C         39.46325         4.37256         0.10230
C         38.19483         6.43684        -0.42501
C         38.14521         7.81793        -0.75712
C         39.45479         5.74089        -0.30640
C         39.37806         8.53808        -1.12626
C         38.12153        10.69224        -1.10122
C         38.09060        12.11270        -1.28175
C         39.37438        10.01193        -1.12489
C         39.31046        12.80733        -1.47897
C         37.94034        14.98944        -1.68115
C         37.99728        16.43877        -1.47543
C         39.29401        14.22600        -1.84754
C         39.20481        17.13736        -1.74981
C         37.98334        19.24023        -1.36990
C         39.18852        18.56701        -1.72712
C         40.68113         2.22764         0.44887
C         40.69748         3.65862         0.18528
C         41.89929         4.33040        -0.04919
C         40.70011         6.39951        -0.51955
C         40.71903         7.81289        -0.97697
C         41.89818         5.69288        -0.36820
C         41.88566         8.66858        -0.73618
C         40.58931        10.72082        -1.15574
C         40.56535        12.15568        -1.32882
C         41.82477        10.01659        -0.90415
C         41.74883        12.93848        -1.38624
C         40.52400        15.01387        -1.79646
C         40.45168        16.44869        -1.96098
C         41.72139        14.32188        -1.55819
C         41.60337        17.21246        -2.23249
C         40.36977        19.28763        -2.01994
C         41.55387        18.60961        -2.28679
O         38.42635        14.54635        -2.98210
O         11.27302        14.75175         1.90252
O         40.08947         7.97929        -2.28840
O         29.68274        10.44194        -1.78453
O         24.81423        16.82349         0.00422
O          4.29350         8.17983        -1.97642
O         33.16694         2.93978         1.86590
O          9.20270        15.45039        -1.96561
O          5.86134        16.79905        -2.73862
O         16.39608         7.96059         2.52924
O         17.16856        14.04331         3.24614
H         16.22383        13.85173         3.47801
O         27.03510         0.28661         1.20156
H         27.25408         0.78360         2.01634
O         23.80035         3.41688         2.04012
H         24.62451         2.89311         2.13275
O          8.65465         6.82773        -1.79111
H          8.67205         6.00563        -2.32480
O          8.41175         7.42945         1.81661
H          8.46257         8.26555         2.32667
O         19.69602         9.68416         3.12301
H         18.82034         9.34283         3.40480
O         38.22884         2.56209         2.51081
H         37.37691         3.00876         2.70666
O         28.47836        10.13771         1.68128
H         27.76735        10.55547         2.21492
O         24.92258        12.32858         2.83724
H         24.24935        12.84035         3.33521
O         24.95124        18.55253         3.30859
H         24.39587        17.85002         3.72493
O         19.41966        12.37370         3.21629
H         20.16838        12.71579         3.74489
O         13.76065        10.78157        -1.18957
H         12.94885        11.19580        -1.55284
O         23.53007        16.24042         3.42596
H         22.64588        15.97405         3.75720
O          5.33968        12.46260        -2.74602
H          6.13544        12.96787        -3.01919
O         32.00626         9.59314        -2.42706
H         31.07506         9.67937        -2.74852
O         23.04589        10.87426        -0.99635
H         22.20884        11.38531        -1.05450
O         26.93529        10.20427        -1.66194
H         26.02828        10.00197        -1.97340
O         32.26012         4.33401        -1.42737
H         32.08271         3.45287        -1.81768
O          5.91656         6.37919         1.56028
H          6.79270         6.66857         1.92838
O         30.76978         8.20295         1.68049
H         29.99815         8.79596         1.86322
O          2.23732         8.54867         1.05971
H          1.39691         8.98568         1.31062
O         12.20172         0.08072         0.33858
H         12.12939         0.32695         1.28334
O         24.50304         1.12538        -1.69896
H         24.31706         2.02917        -2.04878
O         35.43696        20.48957        -1.31878
H         35.22622        20.19770        -2.22922
O         32.04568         5.66265         1.97618
H         31.74440         6.55117         2.28058
O         24.17414         4.01141        -1.56661
H         24.78622         4.58075        -2.07926
O         18.84358        12.22913        -0.37963
H         18.09388        11.89923        -0.91917
O         31.11071        16.20257         2.14660
H         31.98316        15.76675         2.25550
O          8.18225        12.31001         1.85558
H          9.00916        12.17423         2.36596
O         14.46389        14.12911         3.03470
H         14.09343        14.99614         3.30920
H          0.27109         1.56585        -1.16798
H          0.22435         4.03129        -1.10180
H          2.41734         0.32072        -0.95278
H          0.31636         5.98798        -1.46687
H          0.26365         8.39096        -1.23429
H          0.29016        10.35517        -0.78953
H          0.36126        12.77259        -1.07553
H          0.44347        14.65989        -1.05990
H          0.52858        17.11504        -0.98681
H          1.80709        19.21988        -0.98066
H          4.87060         0.33011        -0.70757
H          3.96017        20.43239        -0.97575
H          7.33619         0.33352        -0.56016
H          6.42152        20.35673        -0.85653
H          9.80423         0.32659        -0.51890
H          8.85475        20.33395        -0.67411
H         12.37747         0.95982        -1.50665
H         11.31611        20.31316        -0.16691
H         14.72179         0.27049        -0.12923
H         13.76360        20.24739         0.18795
H         17.18785         0.23802         0.11838
H         16.18757        20.18406         0.45292
H         19.66546         0.23255         0.16830
H         18.61357        20.16005         0.64465
H         22.09449         0.25220        -0.12534
H         21.07048        20.15245         0.84052
H         24.64746         0.22895         0.16636
H         23.47238        20.20306         1.22252
H         27.12036         0.55261        -0.83671
H         25.95304        20.24450         1.23088
H         29.59373         0.23823         0.20262
H         28.29801        20.23567         0.50535
H         32.05823         0.26056         0.28570
H         30.74121        20.24057         0.19998
H         34.67465         0.32687         0.43392
H         33.17781        20.26843        -0.19656
H         37.07336         0.44258         0.84553
H         35.89192        19.70213         0.52007
H         39.55731         0.50038         0.98421
H         37.97040        20.33999        -1.35074
H         41.62670         1.67575         0.33478
H         42.85129         3.78412         0.01081
H         42.85758         6.19577        -0.55170
H         42.82301         8.21150        -0.38825
H         42.74083        10.60210        -0.74546
H         42.72684        12.45577        -1.26119
H         42.67179        14.87304        -1.52557
H         42.55995        16.70675        -2.42303
H         40.34511        20.38659        -2.02227
H         42.46790        19.17384        -2.51872
