         272
 CSIRO Nanostructure Databank - Neutral Graphene Oxide Data Set
C        -10.89335         0.60122        -1.60165
C         -9.80287         1.40758        -1.06031
C         -8.89584         0.66215        -0.07554
C         -7.56154         1.40877         0.14434
C         -6.30410         0.60619         0.03122
C         -5.00192         1.26146        -0.25326
C         -3.74029         0.50166         0.11508
C         -2.42552         1.13954        -0.20728
C         -1.09316         0.40940        -0.02191
C          0.04320         1.20812         0.59137
C          1.36810         0.50528         0.38000
C          2.64467         1.27785         0.40812
C          3.96316         0.53684         0.38914
C          5.23068         1.29758         0.61164
C          6.51445         0.62557         1.00457
C          7.79051         1.41363         0.77907
C          9.01113         0.57757         0.71577
C         10.32295         1.60634        -0.85470
C         10.87331         0.66136        -1.82689
C         -9.73921         2.75989        -1.18586
C         -8.88680         3.56305        -0.20978
C         -7.51747         2.87865        -0.04353
C         -6.28055         3.49778        -0.64369
C         -4.98353         2.71243        -0.72565
C         -3.64086         3.42911        -0.75454
C         -2.30843         2.59129        -0.70553
C         -1.12693         3.41543        -0.05652
C          0.00378         2.69168         0.62798
C          1.29454         3.43195         0.95271
C          2.61067         2.70614         0.90300
C          3.90072         3.49542         0.91511
C          5.20805         2.77043         0.90958
C          6.43023         3.52605         0.44264
C          7.72630         2.82806         0.19801
C          9.02134         3.65650        -0.14273
C          9.79799         2.81470        -1.16479
C         -8.74616         5.05244        -0.44770
C         -7.57691         5.72778        -0.49793
C         -6.28954         5.00085        -0.71194
C         -4.98064         5.72011        -0.58278
C         -3.68148         4.92542        -0.47776
C         -2.53685         5.57134         0.24217
C         -1.18479         4.89853         0.18100
C         -0.07413         5.65581         0.94183
C          1.29113         4.94924         0.92653
C          2.56852         5.68049         0.61627
C          3.86147         4.92727         0.43366
C          5.14661         5.71695         0.40635
C          6.34118         4.96148         0.94224
C          8.07877         6.09234        -0.39366
C          8.69406         4.99936        -0.81969
C         -7.57472         7.25902        -0.38861
C         -6.22029         7.96007        -0.70563
C         -5.07582         7.14572        -0.10382
C         -3.89877         7.80469         0.53798
C         -2.61111         7.02395         0.64206
C         -1.36381         7.78103         0.26967
C         -0.04156         7.04400         0.26604
C          1.22543         7.80164         0.01454
C          2.55333         7.10273         0.13736
C          3.82563         7.88084         0.15720
C          5.17481         7.23822         0.49956
C          6.21388         7.79908        -0.53314
C          7.64046         7.33514        -0.21983
C         -6.17873         9.39126        -0.21054
C         -5.11492         9.99874         0.33183
C         -3.86193         9.30576         0.84545
C         -2.57240        10.00301         0.50112
C         -1.38895         9.30254         0.05437
C         -0.07678        10.07910        -0.16979
C          1.23404         9.29233        -0.03451
C          2.40198         9.97847         0.00795
C          3.76053         9.38849         0.34739
C          4.96461        10.00906        -0.33462
C          6.08076         9.31646        -0.61749
C        -11.00639        -0.73189        -1.41171
C         -9.87216        -1.62722        -0.96678
C         -8.65335        -0.80399        -0.51349
C         -7.53081        -1.50547         0.18703
C         -6.38590        -0.70961         0.75129
C         -5.13921        -1.39065         1.22753
C         -3.81036        -0.56906         1.23448
C         -2.49453        -1.42978         1.33481
C         -1.18666        -0.85682         0.84026
C          0.08014        -1.68644         0.77679
C          1.39202        -1.00119         0.49997
C          2.68776        -1.69116         0.79835
C          3.96775        -0.97347         0.50548
C          5.27579        -1.66232         0.76861
C          6.53747        -0.88763         1.09945
C          7.85824        -1.64487         1.02885
C          9.04325        -0.77313         0.80534
C         10.27083        -1.64509        -0.85877
C         10.83865        -0.69888        -1.82543
C        -10.18654        -2.69457         0.09868
C         -8.95012        -3.59875         0.23943
C         -7.71530        -2.89676         0.69202
C         -6.49146        -3.62482         1.19409
C         -5.15879        -2.89945         1.42376
C         -3.87509        -3.66778         1.59382
C         -2.53476        -2.93686         1.62298
C         -1.24653        -3.73122         1.59801
C          0.09405        -3.02673         1.44299
C          1.39616        -3.76427         1.34213
C          2.67749        -3.02672         1.07021
C          3.93624        -3.82226         1.10826
C          5.27550        -3.08076         1.31806
C          6.51998        -3.85874         0.78080
C          7.84595        -3.13627         0.65179
C          9.03948        -3.73389        -0.17477
C          9.60888        -2.77116        -1.20967
C         -8.95377        -4.94057         0.10042
C         -7.77931        -5.79023         0.44417
C         -6.51076        -5.12761         1.07664
C         -5.18563        -5.86750         1.03645
C         -3.89353        -5.18967         1.42224
C         -2.58585        -5.94245         1.23565
C         -1.26902        -5.22720         1.35547
C         -0.05481        -5.82687         0.67407
C          1.27904        -5.15377         0.77971
C          2.51985        -5.94702         0.50676
C          3.84417        -5.22896         0.58076
C          4.97787        -5.74081        -0.25110
C          6.31022        -5.07207        -0.10426
C          7.53210        -5.87744        -0.38986
C          8.72468        -5.09126        -0.87523
C         -7.59918        -7.04302        -0.25398
C         -6.45883        -7.91367        -0.08750
C         -5.16278        -7.25203         0.41494
C         -3.88905        -7.69131        -0.25044
C         -2.61297        -7.13549         0.30556
C         -1.38415        -7.99088         0.21955
C         -0.06703        -7.31049         0.41165
C          1.06798        -7.94075        -0.39875
C          2.42053        -7.29353        -0.11294
C          3.54336        -7.86260        -1.00041
C          4.91444        -7.14029        -0.82677
C          6.19188        -7.93502        -0.81546
C          7.47111        -7.22597        -0.53000
C         -6.32941        -9.17334        -0.86973
C         -5.14236        -9.71600        -1.17812
C         -3.84927        -8.93341        -1.17317
C         -2.59192        -9.76465        -0.99862
C         -1.42891        -9.30138        -0.49159
C         -0.14592       -10.14833        -0.62285
C          1.14295        -9.46196        -0.08794
C          2.44763       -10.07653        -0.57992
C          3.59677        -9.37421        -0.77667
C          4.88980       -10.05073        -0.83706
C          6.08252        -9.41148        -0.80232
O         -6.10786        -0.76159         2.15058
O         -3.17818        -6.60800        -0.94985
O          4.77260        -1.57868        -0.58033
O         -3.11260         0.21348        -1.14407
O         10.31137        -1.35071         0.53589
O          2.10761         5.53464         1.99893
O          0.88167        -3.33273         2.63823
O         -1.85174        -3.31635         2.85032
O         10.25708         1.20769         0.50216
O         -0.36764         1.88124         1.80172
O          7.20593        -1.35292         2.29522
O         -7.49864        -1.26747        -1.26940
O         -7.40643         2.30367         1.29236
O          4.58000         5.14264        -0.80030
O          7.15282         1.31641         2.10670
O         -4.68238        -5.88876         2.41689
O          6.97946         5.30428         1.91608
O          5.44382        -4.75580        -1.24495
O          1.94846         1.04948        -0.85287
O         -4.65530        -3.25278         2.74816
O         -5.83207         2.89005        -1.88902
O         -3.40378         4.40872        -1.80556
O          6.77998         3.07561        -0.89747
O         -5.58776         5.51680        -1.89106
O         -0.64695        -8.07225         1.48328
O         -9.62838         0.59068         1.12088
O          4.64782         3.24266         2.15427
O         -1.58650        -0.70221         2.21776
O         -7.48056        -3.08076         2.11310
O          4.78369         0.99813        -0.73550
O         -2.72895         5.98327         1.63529
O          4.03201        -4.97791         2.01200
O          1.89193         2.87956         2.15766
O         -1.65897         8.34889        -1.03906
O          7.54820        -4.01336         1.78286
O          3.14487        -7.60283        -2.32131
O         -0.66741         4.38576        -1.06183
O          0.50707         7.09933        -1.06850
O         -4.96870         7.20156         1.34638
O         -5.71129         0.46305        -1.27452
O          2.66254        -7.20223         1.30680
O         -7.46120        -5.80380         1.89290
O          0.67986        -1.74738        -0.54302
O          3.29793         7.38051        -1.09082
O         -5.86838        -8.16686         1.25677
O         -1.79900        -6.02786         2.44307
O          0.43791        -5.06003        -0.44928
O          5.66513        -7.29279        -2.04850
O         -6.05862         8.07125        -2.12864
H         -5.95837         7.16039        -2.50073
O          5.37052        -2.94312         2.73584
H          5.40426        -3.84085         3.13074
O          5.56129         7.56482         1.83004
H          5.42505         8.52954         1.97957
O         -0.04550        11.20804         0.70490
H          0.13338        10.91154         1.62044
O          9.78980         3.89381         1.02732
H         10.18301         3.03860         1.31394
O          0.69828        -7.76598        -1.77206
H          1.55150        -7.66520        -2.30717
O         -0.42167         5.83122         2.31534
H          0.37409         5.66524         2.86866
O          5.83691         7.28116        -1.81510
H          6.46406         7.61403        -2.48794
O         -7.91648         7.61319         0.95214
H         -8.64674         7.03759         1.25992
O         -3.85098         0.25714         2.40211
H         -3.95626        -0.30942         3.19608
O         -1.91180         2.41065        -2.07257
H         -1.92019         3.29665        -2.50553
O          8.42479        -4.87109        -2.26806
H          7.46618        -5.02037        -2.42312
O          1.19127        -9.69485         1.33164
H          1.81071        -9.05116         1.74119
O         -9.51998        -2.39519        -2.14376
H         -8.99244        -1.82050        -2.73877
O         10.06384        -4.04046         0.78435
H         10.37093        -3.19314         1.18152
O          0.02844       -10.48037        -1.99860
H          0.24137        -9.64414        -2.47274
O         -3.92411         9.42390         2.30116
H         -4.62409         8.79508         2.59522
O         -3.79105        -8.44788        -2.54326
H         -3.09726        -7.75036        -2.57776
O        -10.47279        -2.08054         1.34441
H        -10.17891        -1.12500         1.35492
O         -9.59852         3.48124         1.04393
H         -9.63244         2.52278         1.31373
O          3.93512         9.68671         1.77299
H          3.19383         9.28712         2.27488
O         -0.68766         0.03893        -1.34461
H         -1.02649         0.71330        -1.97919
H         11.19086        -1.18364        -2.75134
H         11.25047         1.13405        -2.74861
H          9.82489         3.15177        -2.21180
H          9.08583         5.07488        -1.85477
H          8.32355         8.06975         0.24381
H          6.92996         9.85889        -1.06607
H          4.94096        11.09761        -0.50169
H          2.35354        11.07936        -0.02738
H         -0.12781        10.48889        -1.21144
H         -2.45144        11.03387         0.87044
H         -5.18343        11.06857         0.58447
H         -7.06406        10.00022        -0.45191
H         -8.35446         7.66874        -1.09653
H         -9.68093         5.62983        -0.35229
H        -10.47034         3.28594        -1.82036
H        -11.72177         1.14658        -2.08153
H        -11.90594        -1.24889        -1.77997
H        -11.05924        -3.32398        -0.22144
H         -9.86890        -5.46327        -0.21826
H         -8.24852        -7.23722        -1.12169
H         -7.25648        -9.74193        -1.03924
H         -5.11177       -10.69634        -1.67643
H         -2.58703       -10.73481        -1.51980
H         -0.29177       -11.10622        -0.06278
H          2.51122       -11.17368        -0.48988
H          4.87283       -11.15183        -0.82560
H          7.01582        -9.99354        -0.77975
H          8.40004        -7.78168        -0.73996
H          9.65439        -5.71270        -0.81666
H          9.52740        -3.05365        -2.27012
