         420
 CSIRO Nanostructure Databank - Neutral Graphene Oxide Data Set
C         27.84055        27.33150        -0.58438
C         27.83532        28.79015        -0.95687
C         26.58300        29.54451        -0.59512
C         27.76939        31.68991        -0.39923
C         26.56620        30.89604        -0.43704
C         27.81199        33.10230        -0.33961
C         26.61070        33.87853        -0.24379
C         27.85658        35.98240        -0.11734
C         26.63282        35.24166        -0.08973
C         27.90429        37.40571         0.07497
C         26.72803        38.14726         0.36855
C         27.98633        40.23130         0.60049
C         26.76555        39.49964         0.62525
C         28.03306        41.63441         0.89464
C         26.86475        42.37132         1.26043
C         28.17124        44.40722         1.56197
C         26.92818        43.70425         1.58481
C         28.26160        45.76717         1.93291
C         30.27861        27.34200        -0.33821
C         29.00946        26.66216        -0.37220
C         30.25450        28.76758        -0.29098
C         29.07451        29.48020        -0.45945
C         30.30705        31.69567        -0.13724
C         29.01751        30.93027        -0.21245
C         30.32401        33.14737        -0.37264
C         29.06388        33.84002        -0.39131
C         30.29174        35.99916        -0.63359
C         29.05390        35.25401        -0.35804
C         30.35931        37.44351        -0.32997
C         29.15229        38.11853         0.02234
C         30.43224        40.22540         0.20375
C         29.18748        39.52470         0.27792
C         30.47405        41.62655         0.47417
C         29.28425        42.32444         0.83992
C         30.60445        44.40569         1.14493
C         29.35210        43.71248         1.16869
C         30.66919        45.78865         1.51225
C         29.48113        46.43405         1.90924
C         32.83347        24.62204        -0.82489
C         31.61135        25.27721        -0.72738
C         32.77877        27.31976        -0.10324
C         31.55401        26.64235        -0.36064
C         32.72138        28.73827         0.39925
C         31.56322        29.47665        -0.24236
C         32.79356        31.71072         0.07277
C         31.58786        30.95880        -0.30945
C         32.79892        33.09496        -0.02702
C         31.56388        33.78732        -0.37755
C         32.87753        35.94408        -0.50418
C         31.61855        35.21200        -0.68191
C         32.84221        37.41067        -0.87605
C         31.58666        38.12755        -0.39162
C         32.87740        40.24794        -0.19678
C         31.63168        39.52206        -0.12800
C         32.92109        41.62439         0.06749
C         31.71785        42.33487         0.42793
C         33.11561        44.35655         0.97657
C         31.77753        43.69887         0.76657
C         33.09519        45.85730         0.93631
C         31.93600        46.51758         1.39693
C         33.22119        48.57695         1.56615
C         32.02210        47.89960         1.69688
C         35.30841        23.18341        -0.04214
C         35.32700        24.53009        -0.74176
C         34.03855        25.28908        -0.56763
C         35.27394        27.38780        -0.01608
C         34.02665        26.66304        -0.21616
C         35.25149        28.80255         0.23871
C         34.02618        29.48656         0.31188
C         35.23910        31.73650         0.68799
C         33.96158        30.95090         0.51882
C         35.25660        33.16342         0.29657
C         34.05176        33.83409         0.05771
C         35.32322        35.96959        -0.25196
C         34.05158        35.26561        -0.22321
C         35.32931        37.39879        -0.42156
C         34.11306        38.12459        -0.50962
C         35.34673        40.23966        -0.45501
C         34.11156        39.52468        -0.41078
C         35.34988        41.66238        -0.42930
C         34.15946        42.36010        -0.07492
C         35.38572        44.49340        -0.14227
C         34.22580        43.73999         0.18472
C         35.43169        45.92297         0.02884
C         34.29303        46.57271         0.65215
C         35.56210        48.69928         0.72855
C         34.36005        47.94602         1.01937
C         35.77503        50.00831         1.22736
C         37.71641        23.12131        -0.42285
C         36.45171        22.49375         0.05429
C         37.76962        24.60233        -0.28198
C         36.56106        25.29865        -0.31894
C         37.76453        27.40045         0.08365
C         36.52334        26.70312        -0.08527
C         37.73854        28.82576         0.27880
C         36.51312        29.49992         0.39801
C         37.78896        31.70546         0.59352
C         36.50942        30.94208         0.73260
C         37.74569        33.16108         0.29920
C         36.53198        33.84312         0.16618
C         37.78401        35.97351        -0.17804
C         36.53121        35.26846        -0.10350
C         37.79571        37.39082        -0.32858
C         36.56532        38.10519        -0.41814
C         37.80676        40.24375        -0.59920
C         36.57628        39.52858        -0.51515
C         37.79611        41.66555        -0.78282
C         36.55015        42.39001        -0.67390
C         37.66695        44.57040        -1.14164
C         36.51845        43.80311        -0.65747
C         37.70665        46.03320        -0.97423
C         36.56110        46.69235        -0.42615
C         37.37332        49.07934        -0.78330
C         36.50916        48.14023        -0.17216
C         37.67643        50.34302        -0.24191
C         36.87258        50.76696         0.84064
C         40.17486        20.25755         0.15627
C         39.03501        20.93229        -0.07339
C         40.26071        23.14757        -0.31253
C         39.01449        22.36125        -0.46981
C         40.25883        24.53147        -0.12458
C         39.01083        25.27900        -0.11065
C         40.26071        27.39931         0.18559
C         39.00363        26.69077         0.04772
C         40.26233        28.80678         0.30628
C         39.00501        29.55104         0.32685
C         40.26893        31.71386         0.59821
C         39.01719        30.93296         0.34429
C         40.20278        33.12884         0.07788
C         39.00708        33.83616         0.09381
C         40.24220        35.99524        -0.07665
C         39.01271        35.27299        -0.09894
C         40.23325        37.41059        -0.11847
C         39.03081        38.10611        -0.31176
C         40.26927        40.23785        -0.58479
C         39.04232        39.54250        -0.49902
C         40.27249        41.67275        -0.78297
C         39.00714        42.36210        -0.92163
C         40.31605        44.48611        -1.47218
C         38.98974        43.76320        -1.33053
C         40.20996        45.96350        -1.20693
C         39.01484        46.65063        -1.21370
C         40.22482        48.83827        -1.04525
C         39.14417        48.09079        -1.40690
C         40.20954        50.31151        -1.07804
C         38.86364        51.10861        -0.70639
C         40.26284        53.11080        -0.34811
C         39.06000        52.48637        -0.24255
C         42.70849        20.27315         0.43537
C         41.49275        20.86822        -0.10385
C         42.77557        23.10983        -0.03782
C         41.52620        22.41201        -0.34253
C         42.75583        24.53636         0.06963
C         41.51077        25.24424         0.02958
C         42.73803        27.36609         0.30060
C         41.49906        26.66507         0.16904
C         42.71556        28.77698         0.43471
C         41.50751        29.50825         0.40294
C         42.71221        31.64364         0.13032
C         41.53775        30.95770         0.31751
C         42.76036        33.07896        -0.22592
C         41.45030        33.84147        -0.23818
C         42.73447        35.97573        -0.07570
C         41.49487        35.29638        -0.08187
C         42.76044        37.40012        -0.05927
C         41.49136        38.16723         0.19977
C         42.72963        40.22884        -0.47915
C         41.51529        39.56495        -0.36658
C         42.76810        41.64624        -1.00536
C         41.47098        42.36997        -0.80086
C         42.73937        44.57411        -0.79067
C         41.41820        43.86241        -0.61383
C         42.74664        45.96152        -0.91722
C         41.50888        46.73805        -1.33273
C         42.73735        48.85903        -0.81403
C         41.45691        48.08347        -0.59687
C         42.72294        50.27657        -0.80877
C         41.48221        51.00934        -0.83267
C         42.73373        53.09302        -0.58232
C         41.48663        52.40064        -0.64155
C         43.88719        20.95835         0.41490
C         45.22171        23.07122         0.21583
C         43.95893        22.37114         0.13829
C         45.23370        24.49543         0.26627
C         43.99552        25.22923         0.22756
C         45.23816        27.34590         0.35695
C         43.99782        26.65448         0.30850
C         45.26670        28.78372         0.45268
C         43.98230        29.49793         0.62519
C         45.26969        31.64110        -0.09082
C         43.99205        30.98715         0.39753
C         45.24893        33.14724         0.05979
C         44.01242        33.83707        -0.02734
C         45.22196        35.97185         0.00498
C         43.98951        35.25007        -0.05269
C         45.22188        37.39671        -0.04886
C         43.97297        38.10413        -0.10637
C         45.19150        40.24952        -0.25441
C         43.97388        39.54040        -0.25948
C         45.17956        41.69983        -0.35282
C         43.97868        42.41851        -0.55105
C         45.17535        44.59126        -0.54575
C         43.96581        43.85669        -0.60775
C         45.19406        46.00089        -0.68785
C         43.96312        46.69823        -0.83321
C         45.19588        48.85811        -0.84370
C         43.95418        48.14628        -0.84628
C         45.19907        50.27193        -0.78612
C         43.96742        50.99311        -0.76682
C         43.92547        52.41999        -0.68353
C         47.66121        23.05039         0.24471
C         46.45175        22.37543         0.18961
C         47.70441        24.45374         0.36548
C         46.48567        25.17851         0.36530
C         47.69116        27.32949         0.28793
C         46.48773        26.62804         0.36749
C         47.68207        28.77837         0.07372
C         46.44217        29.49829         0.37900
C         47.77413        31.65910         0.16243
C         46.49205        30.99732         0.60004
C         47.74014        33.10422        -0.24143
C         46.45921        33.84402         0.05921
C         47.70821        35.98417         0.04081
C         46.46726        35.26964         0.04054
C         47.70071        37.42050         0.08043
C         46.44503        38.11617         0.00406
C         47.64471        40.26370         0.09930
C         46.43046        39.54626        -0.04634
C         47.61635        41.68599        -0.07312
C         46.40935        42.39231        -0.25994
C         47.67526        44.50841        -0.79843
C         46.44521        43.89426        -0.15670
C         47.72150        45.99948        -0.92803
C         46.43920        46.74566        -0.76048
C         47.73836        48.84119        -1.19526
C         46.43847        48.12088        -0.87383
C         47.65752        50.30953        -0.87834
C         46.48414        50.95224        -0.71925
C         50.30900        24.49379         0.26579
C         49.00346        25.16137         0.53079
C         50.24075        27.40786         0.09676
C         48.99197        26.66821         0.42783
C         50.25355        28.77584         0.08400
C         48.98074        29.52380         0.00483
C         50.23300        31.71003         0.09459
C         48.96816        30.99967         0.13146
C         50.23703        33.12650         0.22986
C         48.99247        33.85571         0.12871
C         50.22083        35.98537         0.11104
C         48.94278        35.24696         0.10289
C         50.20145        37.49080         0.24622
C         48.89750        38.17044         0.25243
C         50.09280        40.32828         0.66200
C         48.89154        39.58494         0.34724
C         49.97833        41.75224         0.53505
C         48.84787        42.38659        -0.01430
C         50.22292        44.55468        -0.37648
C         48.94533        43.76320        -0.54537
C         50.18872        46.03645        -0.31418
C         48.99975        46.72443        -0.66015
C         50.09411        48.82194        -0.14989
C         48.95655        48.13576        -0.60178
C         51.42787        25.17501        -0.02649
C         52.77618        27.35702         0.02380
C         51.46653        26.64759        -0.37708
C         52.70088        28.86684        -0.17693
C         51.49088        29.54065        -0.05049
C         52.68206        31.70958         0.04043
C         51.45507        30.98453         0.02241
C         52.69982        33.09620         0.38839
C         51.46628        33.81252         0.50315
C         52.38959        36.02906         1.19869
C         51.39996        35.25879         0.63158
C         52.57443        37.45914         1.03203
C         51.38708        38.21410         0.75002
C         52.66012        40.20849         1.16417
C         51.35625        39.61329         0.92305
C         52.81976        41.58272         1.44479
C         51.00242        42.67094         0.96507
C         52.58275        44.55702         0.50387
C         51.24842        43.90886         0.45770
C         52.59019        46.03831         0.50635
C         51.33659        46.73828         0.16343
C         51.24394        48.14158         0.24795
C         55.05453        27.49595        -1.01081
C         53.98080        26.75821        -0.66574
C         55.08270        28.94123        -0.84864
C         53.90081        29.61277        -0.42688
C         55.09249        31.77053        -0.59335
C         53.90058        31.03376        -0.30786
C         55.11349        33.19834        -0.30797
C         53.99671        33.74850         0.38326
C         55.22657        35.89542         0.67573
C         54.21870        34.98811         1.01224
C         55.16933        37.28048         1.34644
C         53.85633        38.05854         1.10030
C         55.14376        40.21513         1.00634
C         53.89702        39.48611         1.04865
C         55.17492        41.63691         0.98061
C         53.94343        42.33375         1.13060
C         55.08888        44.57484         1.04217
C         53.86178        43.78978         0.80579
C         55.01813        45.95487         0.98184
C         53.79965        46.66601         0.73296
C         56.22596        29.68802        -1.16697
C         56.23277        31.07795        -1.03820
C         56.20382        34.05386        -0.58400
C         56.22163        35.39699        -0.18593
C         56.38541        38.10004         1.00780
C         56.36737        39.44385         0.90830
C         56.37100        42.45912         1.00060
C         56.31908        43.82396         1.13296
O         34.40932        31.43022         1.85628
O         39.32945        50.90479        -2.06292
O         48.27460        29.15375        -1.25967
O         49.91257        43.89974        -1.64328
O         38.12555        44.06910        -2.46327
O         43.99968        30.43815         1.76704
O         38.01186        48.69881        -1.96903
O         31.80842        30.14677        -1.53035
O         38.23040        22.62552        -1.70682
O         42.09479        33.37394        -1.50306
O         41.62876        21.43953        -1.43375
O         47.60432        45.10383        -2.11084
O         37.26989        31.32198         1.94390
O         50.46237        36.81625        -1.07088
O         53.31453        35.36564         2.02638
O         51.76451        42.25222         2.05637
O         53.40536        43.98688        -0.59705
O         29.64018        31.29677         1.10286
O         30.90032        35.60468        -1.91639
O         49.07286        25.97124         1.75334
O         47.75126        33.03628        -1.73488
H         47.88050        33.95091        -2.06961
O         40.99355        44.09931         0.76679
H         41.70923        43.79620         1.36325
O         42.93197        41.52270        -2.47583
H         42.11499        41.10883        -2.82765
O         52.94475        27.13447         1.45154
H         53.76680        27.58691         1.73376
O         27.90051        28.83148        -2.44031
H         28.74383        28.40472        -2.70501
O         41.68063        47.03058        -2.74352
H         41.61874        46.16740        -3.21704
O         40.30018        31.87866         2.07339
H         39.37276        31.86327         2.40231
O         35.45169        24.26360        -2.17113
H         36.28996        23.77148        -2.31458
O         40.71850        44.37649        -2.86652
H         39.88858        44.41714        -3.39678
O         51.42942        26.70747        -1.83383
H         50.53620        26.44132        -2.13623
O         46.45634        31.25873         2.02818
H         45.58779        30.92212         2.36775
O         41.36251        47.79217         0.82680
H         41.47560        48.63202         1.31827
O         45.35672        31.34990        -1.50493
H         46.16079        31.80409        -1.85757
O         46.65484        44.18464         1.28149
H         45.89396        43.80989         1.77392
O         32.79889        37.46891        -2.34354
H         32.05238        36.87995        -2.61977
O         55.24429        37.05976         2.78502
H         54.49478        36.46459         3.02290
O         41.45228        38.34398         1.67441
H         42.28018        38.80443         1.93021
O         32.36269        28.68715         1.82535
H         33.17291        28.47531         2.33495
O         47.91390        48.74965        -2.64544
H         47.90834        47.79828        -2.88779
O         33.46032        44.04286         2.39270
H         32.75571        44.43573         2.95190
H         26.88873        26.78039        -0.61438
H         25.63514        28.98564        -0.58284
H         25.59538        31.39628        -0.30321
H         25.64006        33.36436        -0.23320
H         25.67777        35.76937         0.03238
H         25.75690        37.63684         0.40814
H         25.82284        40.01288         0.85569
H         25.89033        41.86646         1.29821
H         26.01653        44.24571         1.87609
H         27.35233        46.30195         2.24265
H         28.98062        25.57612        -0.19860
H         29.50002        47.49245         2.20117
H         32.85732        23.56837        -1.13622
H         30.68862        24.73104        -0.96621
H         33.26235        49.64050         1.83650
H         31.14456        48.44671         2.06493
H         34.35891        22.75852         0.31642
H         35.09361        50.41544         1.98603
H         36.46838        21.48850         0.50008
H         37.06201        51.73237         1.32981
H         40.14562        19.21559         0.50962
H         38.07056        20.41916         0.04877
H         40.34932        54.17138        -0.06792
H         38.19534        53.03911         0.15350
H         42.65696        19.26217         0.86539
H         42.72641        54.18676        -0.46882
H         44.79394        20.45137         0.77280
H         44.86007        52.99565        -0.66948
H         48.59505        22.47265         0.22073
H         46.46193        21.28056         0.10808
H         48.58745        50.89572        -0.87835
H         46.50021        52.03745        -0.54640
H         50.37265        23.40532         0.41959
H         50.09337        49.91869        -0.09260
H         52.36457        24.61048        -0.15292
H         52.09891        48.72564         0.61571
H         55.93984        27.01323        -1.45266
H         54.00563        25.66787        -0.80961
H         55.94089        46.54364         1.09436
H         53.86422        47.76314         0.69297
H         57.13026        29.16856        -1.51546
H         57.15193        31.63149        -1.27466
H         57.05407        33.67234        -1.16621
H         57.05607        36.03642        -0.50619
H         57.34783        37.57019         0.96066
H         57.31088        39.98025         0.73229
H         57.35560        41.97040         0.99172
H         57.25969        44.38880         1.22324
