         664
 CSIRO Nanostructure Databank - Neutral Graphene Oxide Data Set
C          6.09817        31.71041         1.06970
C          6.11890        33.06993         1.17851
C          8.56410        27.46324         0.44069
C          8.54585        28.83691         0.55042
C          7.31377        29.58313         0.72229
C          8.61932        31.62580         1.26889
C          7.31104        30.92911         0.98523
C          8.56299        33.12237         1.09294
C          7.36625        33.81864         1.16889
C          8.55485        35.98574         1.25386
C          7.38013        35.25350         1.30243
C          8.57225        37.47549         1.51258
C         11.03382        23.18315         0.20513
C         11.01306        24.59135         0.14221
C          9.79977        25.32776         0.24760
C         11.03331        27.43409         0.11423
C          9.79178        26.72533         0.25729
C         11.05082        28.89024         0.18533
C          9.78312        29.59784         0.40169
C         11.02597        31.70790         0.18974
C          9.77335        30.96040         0.55871
C         11.09578        33.14762         0.61710
C          9.82038        33.86148         1.06126
C         10.93381        36.01312         0.54905
C          9.78784        35.32137         0.98483
C         10.97990        37.45098         0.57730
C          9.85614        38.17149         1.09610
C         11.08382        40.26453         0.77707
C          9.92423        39.54464         1.19790
C         11.11423        41.66196         0.85223
C         13.44048        18.91231         0.46790
C         13.46865        20.31469         0.28802
C         12.26164        21.05419         0.29426
C         13.49939        23.15641         0.00794
C         12.24677        22.45516         0.15362
C         13.49327        24.56772        -0.05409
C         12.25480        25.30405         0.00638
C         13.50837        27.50423        -0.22228
C         12.23639        26.71588        -0.01697
C         13.49399        28.76749         0.64779
C         12.24964        29.56309         0.34379
C         13.57302        31.88279         0.43008
C         12.26744        31.00888         0.77263
C         13.35829        33.15552        -0.42253
C         12.17301        33.90863        -0.04640
C         12.85068        36.11963        -0.91837
C         12.00440        35.30617        -0.10740
C         13.12500        37.45025        -0.66454
C         12.13260        38.15004         0.11031
C         13.30626        40.28885        -0.33568
C         12.19840        39.56737         0.20522
C         13.36613        41.68871        -0.17459
C         12.23888        42.38569         0.41468
C         13.36529        44.55882         0.25617
C         12.24249        43.78571         0.58953
C         13.43459        45.92007         0.55912
C         15.69611        14.53911         0.20189
C         15.70682        15.95157         0.30491
C         14.57479        16.73321         0.51218
C         15.88168        18.86772         0.40990
C         14.62906        18.16925         0.51464
C         15.92601        20.22669         0.04772
C         14.72360        20.97923         0.04924
C         15.95581        23.11066        -0.15705
C         14.73264        22.42098        -0.07068
C         15.97125        24.53852        -0.09853
C         14.74102        25.26900        -0.08827
C         15.97960        27.36660        -0.02476
C         14.76698        26.68805        -0.05158
C         16.02885        28.83163         0.14441
C         14.77941        29.59714         0.46877
C         15.86877        31.59591        -0.50173
C         14.73502        31.00453         0.01037
C         15.77206        32.93440        -1.11888
C         14.50293        33.69360        -1.03362
C         15.70349        35.85866        -1.58245
C         14.58836        35.02416        -1.58971
C         15.55406        37.34089        -1.78000
C         14.26775        38.11638        -1.34374
C         15.67260        40.37677        -1.39643
C         14.33632        39.61657        -1.15958
C         15.73714        41.77717        -0.92658
C         14.55055        42.41876        -0.52772
C         15.84123        44.63865        -0.38328
C         14.49903        43.88714        -0.40705
C         15.88333        45.92759         0.28885
C         14.68113        46.62766         0.60730
C         15.91702        48.70160         1.49631
C         14.69356        47.94771         1.08579
C         15.93533        50.12316         1.01008
C         18.13497        10.38584         0.80842
C         18.08533        11.63749         0.21579
C         16.88267        12.38754         0.23400
C         18.16241        14.44706        -0.20089
C         16.88252        13.78240         0.05655
C         18.11192        15.93074        -0.47197
C         17.03551        16.60783         0.34279
C         18.40729        18.76697         0.19314
C         17.13112        18.09123         0.52939
C         18.40318        20.24575         0.48213
C         17.25623        20.81707        -0.45674
C         18.44648        23.06643         0.15294
C         17.24571        22.40665        -0.53297
C         18.47139        24.55664         0.10243
C         17.19939        25.26143        -0.11331
C         18.45227        27.39116        -0.26050
C         17.21501        26.66543        -0.12090
C         18.41774        28.79414        -0.50187
C         17.20181        29.52670        -0.39769
C         18.34091        31.63912        -0.90213
C         17.13314        30.90483        -0.64310
C         18.33045        33.05263        -1.15621
C         17.03663        33.67607        -1.51349
C         18.27046        35.93221        -1.63416
C         17.01700        35.15268        -1.95189
C         18.18771        37.37357        -1.95565
C         16.85481        38.14684        -1.94827
C         18.13043        40.34862        -1.68217
C         16.92473        39.62379        -1.65728
C         18.16394        41.76298        -1.40322
C         17.00264        42.47035        -0.99064
C         18.28563        44.55238        -0.51204
C         17.06567        43.84823        -0.56793
C         18.38624        45.91794        -0.04469
C         17.18889        46.51646         0.60200
C         18.47045        48.74139         0.83308
C         17.22844        47.93667         1.11515
C         18.28496        50.16053         0.33678
C         17.19501        50.88054         1.24229
C         18.31084        53.04043         0.63363
C         17.14916        52.34921         0.90577
C         18.32049        54.47354         0.55603
C         20.60917         6.62851         2.95831
C         20.68589         8.08255         2.47642
C         19.40640         8.58230         1.86380
C         20.62971        10.43689         0.78275
C         19.38013         9.75199         1.14498
C         20.60932        11.62633         0.10540
C         19.32296        12.23380        -0.41725
C         20.56869        14.45727        -0.74511
C         19.31825        13.74878        -0.37114
C         20.60115        15.93852        -0.66368
C         19.44130        16.63649        -0.44738
C         20.59913        18.83972        -1.00072
C         19.46493        18.08702        -0.33521
C         20.98855        20.11015        -0.20082
C         19.77288        20.90526         0.26361
C         20.94300        23.10962        -0.44382
C         19.78118        22.38316         0.10198
C         20.92052        24.52548        -0.48645
C         19.73534        25.26585        -0.16786
C         20.90201        27.37706        -0.62082
C         19.69706        26.67126        -0.32445
C         20.89120        28.82447        -0.77550
C         19.61736        29.53075        -0.74300
C         20.85360        31.68962        -0.71886
C         19.56713        30.92719        -0.85661
C         20.77932        33.15312        -1.08830
C         19.51990        33.81731        -1.20397
C         20.75379        35.96249        -1.44072
C         19.49083        35.26481        -1.43309
C         20.78716        37.40341        -1.81645
C         19.48460        38.13923        -1.97862
C         20.72950        40.35258        -1.51212
C         19.45048        39.65379        -1.90543
C         20.68853        41.80687        -1.06673
C         19.45282        42.54138        -1.69017
C         20.47428        44.80029        -1.40907
C         19.41175        43.96356        -1.14679
C         20.73188        46.05046        -0.77426
C         19.58813        46.62747        -0.11426
C         20.79751        48.84303        -0.24408
C         19.69797        48.03119         0.32460
C         20.76726        50.21523        -0.13833
C         19.57547        50.93129         0.25627
C         20.79924        53.05169         0.31817
C         19.56781        52.31138         0.40451
C         20.83186        54.51170         0.71904
C         19.50507        55.21908         0.53951
C         20.73138        57.38650         0.57700
C         19.51438        56.61953         0.55032
C         20.70277        58.73161         0.93337
C         23.18735         4.70739         5.02976
C         21.96800         5.13588         4.45980
C         23.14809         6.84409         3.19755
C         21.93243         6.18946         3.55757
C         23.16752         7.91964         2.25468
C         21.88679         8.31046         1.53879
C         23.08415        10.36264         0.78945
C         21.90412         9.75167         1.05813
C         23.07031        11.84350         0.48783
C         21.90842        12.19338        -0.44292
C         23.12066        14.49740        -0.54391
C         21.87565        13.70641        -0.72783
C         23.12654        15.90309        -0.81701
C         21.85853        16.63963        -0.91675
C         23.08157        18.69536        -1.60282
C         21.85199        17.99210        -1.15719
C         23.13297        20.19927        -1.53968
C         22.01444        20.94969        -0.94947
C         23.24333        23.07683        -1.35325
C         22.08221        22.36358        -0.89281
C         23.28294        24.49904        -1.32228
C         22.09242        25.23321        -0.91846
C         23.25372        27.40394        -1.37504
C         22.06815        26.63982        -0.93330
C         23.36214        28.79268        -0.78571
C         22.06275        29.52565        -0.97512
C         23.28616        31.73375        -1.16979
C         22.00931        30.97469        -1.40742
C         23.25962        33.11395        -1.14471
C         21.98831        33.84197        -1.18061
C         23.22519        35.98563        -1.16657
C         21.97264        35.27782        -1.28467
C         23.23997        37.40993        -1.07552
C         22.09670        38.20551        -1.66854
C         23.17670        40.27712        -0.71362
C         21.86614        39.52571        -0.89444
C         23.23869        41.68835        -0.78276
C         22.08551        42.43365        -1.25150
C         23.38795        44.55599        -1.11030
C         22.31529        43.75766        -1.61187
C         23.28443        45.94894        -0.85154
C         22.01793        46.65120        -0.77113
C         23.27776        48.78218        -0.19697
C         22.04004        48.16369        -0.79423
C         23.17960        50.19374         0.31216
C         22.05341        50.98067        -0.38764
C         23.24492        53.13413         0.14928
C         21.99626        52.41491         0.06833
C         23.26318        54.51894         0.14449
C         21.94494        55.24732        -0.02934
C         23.20975        57.34456         0.53842
C         21.99861        56.70463         0.36813
C         23.25621        58.80766         0.67974
C         21.90602        59.55560         0.89283
C         23.19516        61.42951         1.84082
C         21.98582        60.84316         1.58807
C         24.37347         5.33202         4.69986
C         25.60091         7.03508         3.38358
C         24.38359         6.41166         3.77371
C         25.60778         8.07815         2.46462
C         24.36367         8.53010         1.92280
C         25.57348        10.52938         1.02572
C         24.37708         9.57840         0.83525
C         25.63183        11.61997        -0.06281
C         24.35701        12.42470        -0.04036
C         25.59353        14.54451        -0.15235
C         24.33714        13.78568        -0.31532
C         25.58280        16.02360        -0.47138
C         24.33096        16.61214        -0.93870
C         25.63651        18.74893        -1.30072
C         24.40535        17.92595        -1.68123
C         25.63637        20.17453        -1.48155
C         24.43824        20.88048        -1.62099
C         25.72247        23.02549        -1.81038
C         24.39975        22.33001        -2.00067
C         25.69275        24.47831        -2.02706
C         24.45453        25.19733        -1.72191
C         25.78924        27.38485        -1.66833
C         24.49797        26.66491        -1.78679
C         25.76178        28.82334        -1.47339
C         24.58523        29.53133        -1.23812
C         25.73103        31.72018        -1.65005
C         24.58917        31.01075        -0.92239
C         25.77010        33.19797        -1.30802
C         24.50114        33.87123        -1.14331
C         25.72074        36.06470        -1.24291
C         24.45190        35.26829        -1.08533
C         25.65223        37.41384        -0.58401
C         24.38695        38.09952        -0.65369
C         25.55718        40.22077        -0.12207
C         24.36301        39.54524        -0.47161
C         25.62841        41.62875        -0.19993
C         24.48745        42.34885        -0.60948
C         25.76045        44.51129        -0.28086
C         24.67183        43.79390        -1.01270
C         25.70833        45.93227        -0.17401
C         24.49705        46.64955        -0.42821
C         25.68351        48.75182         0.29907
C         24.46543        48.06524        -0.11404
C         25.65731        50.19081         0.50582
C         24.50125        50.90772         0.34926
C         25.76110        53.05606         0.14069
C         24.48007        52.39554         0.61589
C         25.79722        54.57295        -0.05668
C         24.48675        55.25192         0.27691
C         25.70527        57.32411         0.83088
C         24.47102        56.62166         0.51615
C         25.68652        58.66443         1.18675
C         24.48570        59.44562         1.17400
C         24.43715        60.75673         1.62310
C         26.85407         8.64097         1.94280
C         28.10058        10.25586         0.46863
C         26.86436         9.76068         1.18127
C         28.12243        11.76585         0.30670
C         26.89773        12.44182         0.06558
C         28.08500        14.58023        -0.14687
C         26.88367        13.83160        -0.11227
C         28.07865        15.99344        -0.45382
C         26.87383        16.68630        -0.70257
C         28.10292        18.78845        -1.02363
C         26.85673        18.07646        -1.02626
C         28.09207        20.20005        -1.29028
C         26.89634        20.89887        -1.48579
C         28.19256        23.06651        -1.63489
C         26.91445        22.34395        -1.65388
C         28.26330        24.49812        -1.76262
C         27.02508        25.25199        -2.02577
C         28.26321        27.38532        -1.60291
C         26.99752        26.70239        -1.72641
C         28.23512        28.82735        -1.51307
C         27.03472        29.51237        -1.47044
C         28.25715        31.74511        -1.18630
C         26.99920        30.98431        -1.27384
C         28.28703        33.20708        -1.52354
C         26.96976        33.88971        -1.22906
C         28.14428        35.97410        -0.60933
C         26.98578        35.30161        -0.95680
C         28.08800        37.36147        -0.19448
C         26.81610        38.05356        -0.20463
C         28.04147        40.17369         0.37524
C         26.72696        39.43133         0.39970
C         28.04675        41.61316         0.38541
C         26.87805        42.33107         0.08831
C         28.11524        44.47376         0.38527
C         26.90165        43.77447         0.07547
C         28.11190        45.89969         0.42373
C         26.90540        46.62402         0.23270
C         28.14714        48.75077         0.64927
C         26.89290        48.04989         0.40536
C         28.17885        50.14561         0.82134
C         26.89624        50.90768         1.02252
C         28.23280        53.08715         0.77622
C         27.00968        52.31479         0.45365
C         28.18976        54.44762         0.85164
C         26.98945        55.22601         0.61579
C         26.93020        56.55773         0.92805
C         29.30481        12.49458         0.34261
C         30.53543        14.61527         0.03556
C         29.32232        13.89679         0.08251
C         30.57394        15.98872        -0.32050
C         29.32410        16.69279        -0.56435
C         30.60565        18.79220        -1.00933
C         29.31970        18.07968        -0.81627
C         30.51811        20.26273        -0.93015
C         29.33518        20.93231        -1.24107
C         30.70943        23.01911        -1.68429
C         29.37382        22.34770        -1.43458
C         30.72039        24.49895        -1.35944
C         29.47966        25.21511        -1.58683
C         30.78206        27.35028        -1.60646
C         29.47136        26.65500        -1.60300
C         30.81942        28.85227        -1.56300
C         29.51971        29.57755        -1.52712
C         30.66845        31.67339        -0.82435
C         29.53457        31.01440        -1.18551
C         30.63730        33.12405        -0.65362
C         29.49967        33.84387        -0.88586
C         30.58055        35.85715         0.09376
C         29.50651        35.34622        -0.82659
C         30.45780        37.23459         0.70264
C         29.22850        38.01887         0.28756
C         30.46758        40.11913         1.01372
C         29.21261        39.43675         0.51341
C         30.49423        41.61185         0.80918
C         29.30073        42.31576         0.59787
C         30.54997        44.44329         0.79553
C         29.31751        43.74862         0.58959
C         30.56032        45.87071         0.80845
C         29.35287        46.59428         0.64982
C         30.61118        48.71099         0.87715
C         29.36818        48.01686         0.70571
C         30.60389        50.13065         0.96743
C         29.41065        50.83778         0.97139
C         29.45189        52.32747         1.25270
C         31.80770        16.64626        -0.41410
C         33.31368        18.62375        -0.94303
C         31.94001        18.00691        -0.91787
C         33.56281        19.87809        -0.47888
C         31.65054        21.05654        -0.55673
C         33.22642        22.96212        -1.11780
C         31.86357        22.31990        -1.01391
C         33.14446        24.42168        -0.67976
C         31.91461        25.12518        -0.99461
C         33.10397        27.34053        -0.50216
C         32.01527        26.59669        -1.17963
C         33.10078        28.72463        -0.39040
C         32.12569        29.58516        -1.18414
C         33.09160        31.63499        -0.05648
C         31.83097        30.84741        -0.33376
C         33.09202        33.01151         0.06939
C         31.95603        33.85302        -0.49248
C         32.97661        35.86051         0.65529
C         31.75828        35.18416         0.20280
C         32.99939        37.24684         0.62639
C         31.74652        37.98439         0.41414
C         33.02035        40.16617         0.85834
C         31.74908        39.46756         0.53729
C         32.98043        41.57651         1.04902
C         31.74052        42.29450         0.95096
C         33.00627        44.42304         1.14469
C         31.75907        43.71764         0.96238
C         33.00348        45.83479         1.15360
C         31.80801        46.57088         0.98786
C         31.81100        47.98182         0.99775
C         34.64939        20.81048        -0.65024
C         35.60321        23.00541        -0.45787
C         34.45672        22.19808        -0.61948
C         35.56086        24.38962        -0.19184
C         34.26801        25.09888        -0.21324
C         35.02891        27.18016         0.94111
C         34.15828        26.53464         0.09840
C         35.04338        28.64160         1.25859
C         34.13647        29.43772         0.32502
C         35.53873        31.51647         0.62581
C         34.21869        30.83026         0.33951
C         35.41661        32.98475         1.01521
C         34.24290        33.70352         0.63698
C         35.34970        35.80931         1.37967
C         34.17232        35.09589         0.87182
C         35.40082        37.31279         1.26780
C         34.29241        38.00614         0.51024
C         35.46236        40.15143         1.14635
C         34.22047        39.46690         0.89489
C         35.43389        41.54961         1.29536
C         34.21877        42.28059         1.22886
C         34.20500        43.69298         1.30005
C         36.81899        25.03336        -0.05792
C         37.79936        27.32582         0.37597
C         36.95138        26.26469         0.62577
C         37.62512        28.67255         0.88854
C         36.43999        29.26341         1.31449
C         37.76512        31.43263         1.78366
C         36.38955        30.74728         1.66901
C         37.81357        32.92726         1.86672
C         36.56223        33.67088         1.52522
C         37.86172        35.80666         1.51069
C         36.60547        35.07270         1.54473
C         37.87350        37.24241         1.39205
C         36.71263        38.00892         1.28014
C         36.68934        39.41594         1.21681
C         38.84193        29.47024         0.78257
C         40.13157        31.54397         0.87549
C         38.95375        30.75558         1.21272
C         40.20018        32.88286         1.02225
C         39.17061        33.66233         1.80765
C         39.05243        35.10687         1.42369
O         16.29927        32.86696        -2.50583
O         20.12530        21.73668         1.41792
O         31.76068        26.89629        -2.60426
O         31.71773        38.85107        -0.79121
O         26.35366        24.90287        -3.28289
O         21.17908        13.96683        -2.00720
O         26.48911        52.36662        -0.92585
O         17.47424        37.73310        -3.19532
O         14.05170        32.41931         1.63844
O         30.26422        29.37783        -2.81554
O         35.97700        26.44942         1.63995
O         25.47628        15.52189         0.92809
O         13.37490        35.53294        -2.06010
O         15.74037        29.30341         1.52764
O         17.30789        17.14866         1.66040
O         14.62083        40.26430        -2.42253
O         37.84855        32.08983         3.09706
O         17.43211        46.84557         2.04804
O         35.01495        36.73368         2.53172
O         22.82535        19.47132        -2.82157
O         23.56895        27.28668        -2.78466
O         22.59899        59.52350        -0.40329
O         19.52606        48.41619         1.75668
O         14.52056        37.73884        -2.72214
O         21.37478        44.41875        -2.39904
O         32.54251        20.44033         0.32041
O         14.96991        44.60105        -1.58017
O         20.39328        40.18800        -2.89986
O         17.53479        20.30380        -1.72654
O         10.85718        33.35999         2.02604
O         27.50841        31.41845         0.03982
O         18.29545        23.78060         1.39866
O         31.28122        18.26442        -2.21767
O         20.22519        37.64283        -3.14934
O         13.38419        28.35906         2.02179
H         13.14765        29.16595         2.53862
O         25.96530        54.81289        -1.48712
H         26.44859        54.02822        -1.84119
O         22.75241        50.14437         1.72449
H         23.29578        49.46730         2.18071
O         39.72555        33.74060         3.15941
H         39.34886        32.97721         3.65924
O         30.64942        52.91316         0.73195
H         30.60459        52.88627        -0.24562
O         21.75940        30.99349        -2.83854
H         22.53278        30.59930        -3.29499
O         17.62136        16.06119        -1.84724
H         18.35494        15.83894        -2.45895
O         25.70949        10.96590        -1.37544
H         25.44531        11.62132        -2.05580
O         24.46356        52.56116         2.06726
H         23.69939        52.04035         2.40355
O         21.76169         7.45417         0.37113
H         22.56685         7.60945        -0.17533
O         20.46623        41.83025         0.36419
H         20.90042        41.03804         0.76141
O         17.98893        20.45006         1.83703
H         18.59353        21.12816         2.22816
O         29.26285         9.76841         1.12846
H         30.02211         9.82524         0.51556
O         34.65905        37.96833        -0.90586
H         33.90902        38.36513        -1.40349
O         24.13537        22.36902        -3.45212
H         24.38187        23.26069        -3.78108
O         24.60593        17.56888        -3.08389
H         24.13914        18.25844        -3.61503
O         13.51628        27.98424        -1.60300
H         13.51937        27.20500        -2.19791
O         34.39020        28.69980         2.56070
H         34.60305        29.57877         2.96368
O          7.44622        38.11678         0.89754
H          7.55197        38.05770        -0.07395
O         30.47884        39.89274         2.47562
H         29.75617        40.42987         2.86621
O         32.37216        34.18421        -1.85836
H         31.65219        34.73510        -2.25098
O         20.23160         5.76471         1.88100
H         20.80031         5.99306         1.10805
O         20.08999        19.25438        -2.28338
H         19.15442        19.59624        -2.15987
O         22.18139        11.51221        -1.69115
H         21.33530        11.44911        -2.18786
O         32.78431        29.97709        -2.39794
H         32.10503        29.97694        -3.11163
O         22.07738        48.42062        -2.24389
H         22.27509        49.38616        -2.36444
O         11.14713        31.69912        -1.25628
H         11.15459        30.76463        -1.55544
O         24.83624        31.12689         0.50554
H         24.35162        30.38952         0.94873
O         25.81061        36.35730        -2.69201
H         25.01120        36.87665        -2.93322
O         17.64878        50.77234         2.60144
H         17.09876        50.07878         3.05060
O         16.99470        35.14237        -3.40279
H         16.47407        34.35106        -3.67690
O         17.75937        50.03755        -1.00566
H         17.71675        50.93261        -1.40311
O         33.53388        23.02489        -2.55129
H         32.68272        23.14510        -3.04420
O         30.90269        22.94933        -3.15014
H         30.22566        23.52559        -3.56680
O         30.37182        37.07821         2.14724
H         30.41750        37.98400         2.54403
O         25.49703        31.58685        -3.06844
H         26.18656        32.09871        -3.54397
O          8.90373        31.42723         2.69909
H          9.79873        31.81484         2.85886
O         21.15161        54.56521         2.13400
H         20.46550        54.05916         2.61772
O         12.19348        30.94821         2.20149
H         12.89771        31.60878         2.50661
O         20.91388         8.88572         3.66741
H         21.00594         9.82273         3.39257
O         22.81733        12.51802         1.75412
H         23.57996        12.29515         2.34000
O         26.44519        39.22039         1.84224
H         27.10758        38.57539         2.17213
O         25.31241        11.22773         2.28049
H         26.15936        11.59887         2.60716
O         36.30237        31.48362        -0.61600
H         35.71160        31.77196        -1.34446
O         21.68082        19.64837         0.98977
H         21.58123        20.36031         1.66411
O         19.27966        11.90338        -1.85399
H         19.76023        12.62780        -2.32430
O         15.91481        48.73525         2.97053
H         16.26247        47.86019         3.26454
O         19.62584        42.58677        -3.11366
H         18.80413        42.92798        -3.52132
O         21.16484        31.65606         0.71319
H         20.41283        32.05806         1.19689
O         28.48157        33.31468        -2.96747
H         28.79057        34.23237        -3.15006
O         26.74580        51.05634         2.46585
H         26.74057        50.16059         2.86268
O         29.91225        35.77946        -2.19157
H         29.89163        36.76206        -2.20916
O         35.68785        30.92758         2.91979
H         36.30835        31.39232         3.53678
O         23.53391        28.62679         0.67980
H         22.64531        28.47463         1.06959
O         22.57667        38.54761        -2.98276
H         21.77544        38.64332        -3.55831
O         22.38088        51.04199        -1.80698
H         21.81105        51.72148        -2.22508
O         25.16440        43.70981        -2.41582
H         25.18506        44.62355        -2.77349
O         17.41087        22.73684        -1.93129
H         17.45352        21.83691        -2.38702
O         21.59146        55.20237        -1.44156
H         22.24681        55.74339        -1.93076
O         21.38347        39.18686         0.44715
H         22.13156        38.78991         0.94457
O         31.38992        30.31507         0.95415
H         31.20330        31.06686         1.55495
O         24.46923         8.83243        -0.40683
H         24.72597         9.46982        -1.11820
H          5.13504        31.17989         1.02027
H          5.17631        33.63288         1.24129
H          7.62591        26.89529         0.53260
H          6.35972        29.04536         0.60428
H          6.42683        35.77961         1.45833
H          8.44300        37.62446         2.62158
H         10.08721        22.63445         0.32382
H          8.85294        24.77874         0.36013
H          9.06161        40.10818         1.58142
H         10.25494        42.20514         1.27144
H         12.47133        18.39962         0.55304
H         11.31125        20.51864         0.44063
H         11.36956        44.26901         1.05193
H         12.53947        46.41989         0.95762
H         14.74015        14.00330         0.30896
H         13.58438        16.25408         0.55216
H         13.73437        48.37739         1.41294
H         15.39748        50.32906         0.06916
H         17.20463         9.93530         1.18908
H         15.95436        11.88988         0.55600
H         16.21684        52.90574         1.08594
H         17.35376        55.00110         0.56862
H         19.81073         6.54751         3.74105
H         18.46068         8.07715         2.11537
H         18.55619        57.16183         0.57743
H         19.76493        59.17866         1.29698
H         23.18502         3.87155         5.74364
H         21.03320         4.62853         4.73875
H         23.22338        62.41834         2.32101
H         21.05335        61.32155         1.92199
H         25.32229         4.99860         5.14481
H         26.54938         6.66652         3.80259
H         26.62239        59.15072         1.50211
H         25.36615        61.25142         1.94174
H         27.79386         8.10256         2.13703
H         28.07012         9.82164        -0.58023
H         29.09080        54.98730         1.18488
H         27.82393        57.06598         1.32385
H         30.25633        11.98458         0.55490
H         31.48211        14.08608         0.21916
H         31.55316        50.67207         1.09044
H         29.50874        52.44685         2.37201
H         32.71256        16.12568        -0.06619
H         34.05818        18.10369        -1.56392
H         33.95236        46.37457         1.28885
H         32.76044        48.52058         1.13185
H         35.68534        20.43333        -0.67619
H         36.58063        22.50419        -0.36956
H         36.37580        42.09590         1.45191
H         35.15145        44.23577         1.43987
H         37.70324        24.55207        -0.50270
H         38.65199        27.16274        -0.29974
H         38.85238        37.74455         1.37804
H         37.63485        39.97300         1.29513
H         39.70833        28.99791         0.29489
H         40.95708        31.00538         0.38437
H         41.10660        33.42025         0.70558
H         39.99304        35.66346         1.29254
