         260
 CSIRO Nanostructure Databank - Neutral Graphene Oxide Data Set
C         30.54205        31.99097        -0.97662
C         30.44571        33.19336        -0.54530
C         30.38577        35.86588         1.08871
C         30.46334        37.08435         1.28927
C         30.38782        40.25424         1.54226
C         30.32212        41.49788         1.70368
C         32.91454        29.28480        -2.13812
C         31.88181        29.89408        -1.76550
C         32.95485        32.03727        -1.24585
C         31.60337        31.18676        -1.31796
C         32.91168        33.11287        -0.14077
C         31.57254        33.63872         0.32416
C         32.79523        35.66023         1.45810
C         31.50471        34.91424         1.11545
C         32.79632        37.17912         1.73723
C         31.52943        37.99058         1.56457
C         32.74038        40.20544         1.73715
C         31.49344        39.36349         1.57740
C         32.71376        41.69228         1.45590
C         31.42622        42.38310         1.65727
C         32.55614        44.40459         1.10753
C         31.58188        43.78175         1.59314
C         35.73513        27.84046        -2.69330
C         35.55358        29.26858        -2.40211
C         34.24764        29.92636        -2.09923
C         35.45714        31.63619        -0.54574
C         34.18279        31.12047        -1.14215
C         35.43448        33.15654        -0.22422
C         34.07447        33.70177         0.26199
C         35.31603        35.85084         0.95799
C         34.09036        34.99014         1.06222
C         35.33283        37.29300         1.18931
C         34.09842        37.96278         1.69147
C         35.32176        40.32031         1.54002
C         34.05274        39.48311         1.75405
C         35.11203        41.56105         0.59154
C         33.84987        42.35889         1.00168
C         34.88855        44.52201        -0.10465
C         33.75602        43.78865         0.57666
C         35.35325        45.86207        -0.20303
C         37.85500        27.42127        -1.52947
C         36.72010        27.12774        -2.48143
C         38.00257        28.95075        -1.71853
C         36.80806        29.78998        -1.73338
C         37.94191        31.31062        -0.19785
C         36.74700        30.92151        -0.92395
C         37.72124        33.11638         1.00423
C         36.54954        33.73972         0.63685
C         37.74852        35.90300         0.48693
C         36.50019        35.18422         0.74058
C         37.73999        37.40784         0.54080
C         36.48838        38.03647         1.02358
C         37.77745        40.30003         0.92227
C         36.48893        39.52296         0.98922
C         37.76544        41.83536         0.99149
C         36.42271        42.41837         0.58855
C         37.76581        44.43071        -0.41156
C         36.55398        43.48524        -0.48221
C         37.57992        45.73862        -1.16633
C         36.29031        46.36974        -0.88494
C         40.35790        24.59260        -1.70792
C         39.34179        25.33343        -1.86196
C         40.36277        27.37091        -1.24664
C         39.17284        26.72273        -1.68157
C         40.41042        28.76885        -1.07180
C         39.27923        29.48607        -1.60210
C         40.43016        31.89874         0.04080
C         39.21873        31.40343        -0.67460
C         40.20221        33.00099         1.08996
C         39.01826        33.74531         1.06684
C         40.29535        35.90762         0.41714
C         39.03214        35.14890         0.57271
C         40.26513        37.39783         0.50782
C         39.04431        38.08668         0.68707
C         40.30766        40.28747         0.56898
C         39.05538        39.51862         0.98101
C         40.28167        41.74831         0.41363
C         39.11180        42.63428         0.86450
C         40.18926        44.88604        -0.21809
C         38.97963        43.98094         0.01909
C         40.11539        46.01469        -1.20639
C         38.76562        46.49373        -1.70168
C         39.97388        48.56013        -1.90827
C         38.86335        47.94085        -2.00821
C         42.81838        24.38429        -0.80785
C         41.37242        24.70449        -0.65445
C         42.85659        27.20501        -0.45507
C         41.57833        26.55995        -0.93856
C         42.91658        28.74461        -0.36406
C         41.51685        29.41496        -0.26548
C         42.82202        31.48218         0.75700
C         41.51144        30.82975         0.29256
C         42.78700        32.96138         1.02519
C         41.47934        33.66933         0.64012
C         42.78658        35.78359         0.15040
C         41.55297        35.20350         0.87563
C         42.74549        37.32086         0.00171
C         41.48974        38.06708         0.29366
C         42.78166        40.28769        -0.21010
C         41.44599        39.50363         0.02600
C         42.77757        41.71356         0.08466
C         41.55828        42.29590         0.47273
C         42.69780        44.66147        -0.73317
C         41.58262        44.40648         0.00120
C         42.68689        45.84421        -1.62743
C         41.33662        46.42351        -2.00789
C         42.63754        48.62192        -1.86327
C         41.31215        48.30349        -1.88458
C         43.62799        25.01050        -0.01918
C         44.52486        26.83607         1.52519
C         43.79040        26.33346         0.32073
C         44.54473        28.36165         1.53321
C         43.83726        29.21050         0.76517
C         45.41766        31.47834         0.94843
C         44.12324        30.69685         0.69668
C         45.38550        33.03348         0.69386
C         44.07913        33.75543         1.06740
C         45.35746        35.92449         0.46939
C         44.07045        35.23093         0.76409
C         45.42377        37.38752         0.03522
C         44.06184        38.08530        -0.04638
C         45.22608        40.40597         0.56579
C         44.00629        39.56286         0.21022
C         45.21418        41.84640         0.20864
C         43.99926        42.48992         0.04282
C         45.22421        44.69317        -0.44135
C         43.99143        43.84454        -0.66578
C         45.16631        46.05690        -0.87228
C         44.00559        46.65408        -1.57013
C         43.77882        48.09973        -1.67534
C         47.03476        27.17468         1.19968
C         46.00579        26.54690         1.43923
C         47.60453        28.49738         1.28289
C         46.66485        29.40802         1.72731
C         47.94295        31.73467         1.72953
C         46.66825        30.90142         1.63580
C         47.92111        33.23502         1.45951
C         46.58923        33.85862         1.15180
C         47.82248        35.96480         0.66018
C         46.52200        35.25534         0.63030
C         47.84793        37.44426         0.76644
C         46.53463        38.18252         0.75957
C         47.79452        40.40300         0.24627
C         46.54247        39.68159         0.76384
C         47.79507        41.91269         0.53379
C         46.47551        42.63108         0.34342
C         47.70584        44.76275        -0.11281
C         46.43919        44.07217        -0.04375
C         47.50542        46.13102        -0.42357
C         46.42268        46.68082        -0.74329
C         49.96926        28.76402         0.17973
C         48.97628        28.92811         1.10283
C         50.39662        31.72611         1.13549
C         49.28705        31.10600         1.67023
C         50.38747        33.09973         0.64979
C         49.27052        33.99104         1.20449
C         50.23348        35.93469        -0.18590
C         48.98186        35.12348         0.16473
C         50.36707        37.39790         0.21022
C         49.15032        38.18671         0.60379
C         50.35959        40.41033         0.00699
C         49.13386        39.70210         0.51924
C         50.27439        41.88361        -0.28214
C         49.15465        42.65064         0.45021
C         50.18252        44.53436        -0.55457
C         48.95451        44.09998        -0.07936
C         51.00298        29.30943        -0.33056
C         52.26214        31.45045        -1.03826
C         51.77433        30.43067        -0.17483
C         52.23643        32.67717        -0.76653
C         51.36476        33.64661        -0.19261
C         52.69801        35.92919        -0.23852
C         51.47315        35.11255        -0.44906
C         52.57212        37.18724        -0.50760
C         51.59084        38.13108        -0.26790
C         52.55713        40.43788        -1.01732
C         51.38461        39.52285        -0.79762
C         52.44353        41.66031        -1.17975
C         51.39088        42.56599        -0.79146
C         51.30171        44.00111        -0.83025
O         33.55875        37.43075         2.94136
O         43.60969        45.87576        -2.75235
O         50.11272        40.23174         1.43560
O         42.65410        26.75498        -1.85413
O         47.06242        42.34598         1.69990
O         31.34970        33.64136         1.74934
O         41.15614        33.01815        -0.70773
O         37.99670        45.65582        -2.56091
O         39.73018        35.27503        -0.75356
O         39.46784        30.84942        -1.94667
O         45.11299        30.88457        -0.35876
O         49.39943        29.79177         2.18902
O         40.14734        46.29023         0.23131
O         41.69441        43.54716         1.07487
O         37.60632        36.69402        -0.74141
O         33.57099        34.91579         2.42840
O         47.95474        36.58884         1.97139
O         37.70540        31.72625         1.12881
O         41.11460        29.70197         1.11984
O         44.07786        34.72676         2.15277
O         40.01456        39.92581         1.97975
O         42.65194        32.02224         2.12145
O         36.93737        42.60852         1.92414
O         34.92441        30.15752        -3.34850
O         34.54341        30.80363         0.23031
O         51.61369        30.97357         1.16143
O         46.45880        38.92657         2.00360
O         50.09296        37.69322         1.60595
O         44.26879        39.97994         1.58443
O         33.89360        44.02957        -0.91139
O         44.07868        43.37634        -2.12544
O         47.10285        31.45931         2.90267
O         50.65194        35.64991        -1.55507
O         47.10074        33.86103         2.50236
O         41.94558        39.87254        -1.30147
O         36.30086        43.07418        -1.66422
O         33.40508        39.91110         3.00295
O         43.37239        37.72916        -1.26938
O         45.50444        28.94059         2.38545
O         37.04247        39.94115        -0.29967
O         34.82540        41.07430        -0.71816
H         35.23747        41.70734        -1.37651
O         35.68103        33.73109        -1.53750
H         35.91373        34.68085        -1.45030
O         43.93494        26.31484         2.71115
H         44.45638        26.62927         3.47928
O         49.73820        34.52980         2.43162
H         49.00650        35.03938         2.85112
O         43.49389        29.20769        -1.59662
H         43.31752        28.52266        -2.28362
O         33.04025        32.71802        -2.49605
H         32.22345        33.24173        -2.63582
O         50.72928        39.34536        -2.06758
H         51.30219        38.79718        -2.64516
O         39.42933        43.07045         2.19073
H         38.58910        43.31060         2.64236
O         45.46482        33.24106        -0.73880
H         45.16522        32.41805        -1.19800
O         45.38814        42.78407        -2.32818
H         45.73786        43.32095        -3.08181
O         42.78067        35.22511        -1.17777
H         41.91140        35.40203        -1.59999
O         41.09177        46.21287        -3.34739
H         41.95304        46.17626        -3.82400
O         35.74715        40.73078         2.84328
H         34.95459        40.76374         3.43046
O         41.58588        35.41972         2.28798
H         42.43582        35.06738         2.65940
O         47.67867        40.29407        -1.20483
H         46.84963        40.72562        -1.50658
O         49.61996        42.80248         1.79999
H         48.83266        42.84434         2.39006
O         40.88460        24.36308         0.57349
H         41.61618        24.19404         1.20173
O         45.94341        37.39564        -1.32240
H         45.22205        37.07269        -1.91117
O         37.40186        27.15515        -0.20332
H         36.50299        27.52707        -0.08578
O         48.51532        34.44813        -1.01631
H         49.14332        34.66327        -1.75041
