         349
 CSIRO Nanostructure Databank - Neutral Graphene Oxide Data Set
C          1.51033         2.44283         2.72506
C          1.38193         3.76187         2.17795
C          2.62799         1.68389         2.55162
C          2.40534         4.37315         1.48898
C          1.11537         6.50982         1.04278
C          1.04832         7.84040         0.76178
C          2.36024         5.77088         1.03785
C          2.18699         8.55010         0.17547
C          1.21159        10.85904         0.53791
C          1.28633        12.24497         0.39624
C          2.28559        10.04081         0.15602
C          2.37735        12.86057        -0.23874
C          1.13177        15.06776        -0.68309
C          1.13609        16.38188        -1.03401
C          2.42881        14.38785        -0.29619
C          2.35838        17.12384        -1.21279
C          2.41051        18.51009        -1.18110
C          3.70210         2.10864         1.65006
C          3.58718         3.58492         1.08980
C          5.01712         1.50675         1.71696
C          4.87484         4.31881         0.69345
C          3.53778         6.41430         0.69738
C          3.49593         7.74542         0.09473
C          4.84676         5.79421         1.14625
C          4.74645         8.56373         0.10743
C          3.44582        10.66521        -0.35838
C          3.46298        12.04420        -0.62876
C          4.67969         9.87084        -0.63414
C          4.56516        12.56165        -1.53090
C          3.52953        14.89301        -1.19741
C          3.61738        16.37025        -1.58573
C          4.44098        14.03652        -1.68045
C          4.84824        17.03423        -0.92083
C          3.63746        19.21243        -1.19319
C          4.87075        18.54528        -1.06640
C          6.09180         2.08326         0.84199
C          6.13196         3.60411         1.24499
C          7.43926         1.44187         0.99113
C          7.40275         4.34107         0.89014
C          6.11192         6.47437         0.67773
C          6.05494         7.92243         0.44083
C          7.35713         5.79396         0.72347
C          7.31470         8.67510         0.12390
C          5.96104        10.53924        -1.08282
C          5.98682        12.03066        -1.21160
C          7.27417         9.74648        -0.98000
C          7.19743        12.71575        -1.15726
C          6.37318        15.04166        -1.61222
C          6.21549        16.42218        -1.22861
C          7.34221        14.18483        -1.12695
C          7.31589        17.07589        -0.72908
C          6.07916        19.21929        -0.85535
C          7.29896        18.52035        -0.58845
C          8.60925         2.16633         0.88075
C          8.59820         3.63497         0.82330
C          9.86108         1.48537         0.76768
C          9.85568         4.32312         0.68270
C          8.57797         6.49632         0.58375
C          8.60330         7.93512         0.29161
C          9.87837         5.81237         0.91835
C          9.84955         8.51653        -0.24541
C          8.51088        10.61525        -0.90906
C          8.46939        11.97359        -0.99711
C          9.80835         9.83462        -1.01165
C          9.77092        12.76480        -1.19629
C          8.55005        14.84039        -0.62603
C          8.47412        16.28385        -0.17052
C          9.74767        14.18090        -0.66053
C          9.78158        17.02445        -0.19768
C          8.51065        19.17756        -0.37204
C          9.75931        18.48223        -0.20577
C         11.06143         2.17187         0.55590
C         11.04914         3.62659         0.54121
C         12.28537         1.47651         0.38317
C         12.30980         4.32987         0.40161
C         11.12032         6.48763         0.38188
C         11.05296         7.88112        -0.03270
C         12.30378         5.78429         0.32147
C         12.29795         8.55804        -0.40235
C         11.00866        10.66561        -0.67905
C         10.99037        12.01710        -0.72208
C         12.27344         9.95123        -0.63805
C         12.29513        12.71470        -0.41240
C         11.01093        14.87490        -0.39916
C         10.96492        16.31805        -0.13887
C         12.21853        14.21203        -0.46916
C         12.18533        17.02990         0.28007
C         10.95095        19.20165        -0.20769
C         12.20591        18.57178         0.17928
C         13.50706         2.15594         0.21302
C         13.48564         3.60548         0.23751
C         14.71557         1.43021         0.00194
C         14.77400         4.31770         0.12215
C         13.62987         6.53270         0.26084
C         13.52359         7.86703        -0.41304
C         14.76909         5.72553        -0.26718
C         14.66666         8.47298        -0.98985
C         13.42406        10.61406        -1.12471
C         13.46962        12.10390        -1.19350
C         14.46873         9.77130        -1.51623
C         14.79565        12.89613        -1.21103
C         13.51576        14.85865        -0.13925
C         13.49815        16.31574         0.26445
C         14.80277        14.26769        -0.58672
C         14.73807        17.08413         0.21619
C         13.50299        19.22874         0.05410
C         14.72602        18.53324         0.24905
C         15.97471         2.04973        -0.15037
C         16.02096         3.52140        -0.01817
C         17.18916         1.38020        -0.34685
C         17.24996         4.24389        -0.40425
C         15.95087         6.33333        -0.97191
C         15.99131         7.85818        -0.94981
C         17.21636         5.61620        -0.57636
C         17.20046         8.57714        -0.93724
C         16.29041        10.85120        -1.57666
C         16.09691        12.16910        -1.20446
C         17.35593        10.01476        -1.08333
C         17.34807        12.89195        -0.92626
C         15.95970        14.96917        -0.31273
C         15.96073        16.36511         0.14407
C         17.29185        14.36971        -0.58993
C         17.16130        17.03840         0.42719
C         15.93838        19.21295         0.43258
C         17.16129        18.47756         0.89151
C         18.44971         2.07395        -0.38670
C         18.47421         3.51361        -0.35773
C         19.67295         1.38639        -0.49093
C         19.71335         4.22012        -0.35373
C         18.44311         6.36888        -0.29792
C         18.42970         7.87524        -0.44727
C         19.72308         5.64115        -0.27832
C         19.75099         8.54356        -0.48168
C         18.56011        10.68825        -0.74109
C         18.59045        12.13909        -0.69044
C         19.76484         9.95781        -0.55630
C         19.75136        12.84905        -0.39407
C         18.50151        14.93520         0.01242
C         18.42141        16.30535         0.54581
C         19.69677        14.24001        -0.03351
C         19.69956        17.08905         0.70417
C         18.46333        19.21022         0.60824
C         19.66718        18.57435         0.61848
C         20.92693         2.06675        -0.49363
C         20.93942         3.50064        -0.36717
C         22.15513         1.38108        -0.61905
C         22.16835         4.20786        -0.25099
C         20.93215         6.35514        -0.12558
C         20.91159         7.79250        -0.17862
C         22.17689         5.62627        -0.05098
C         22.13152         8.50979         0.20483
C         21.04309        10.67851        -0.62503
C         21.10030        12.20324        -0.61788
C         22.28276         9.92423        -0.22590
C         22.24551        12.74852         0.22082
C         20.91840        14.91651         0.50246
C         21.00467        16.42870         0.30519
C         22.19271        14.15238         0.66526
C         22.12130        17.11171         1.14153
C         20.96306        19.24630         0.56428
C         22.14598        18.58746         0.77115
C         23.39568         2.07341        -0.60814
C         23.39374         3.49078        -0.37591
C         24.63709         1.41496        -0.81991
C         24.62649         4.19531        -0.32941
C         23.42890         6.28412         0.16444
C         23.43124         7.73432         0.46025
C         24.63728         5.58766         0.00790
C         24.67606         8.49933         0.34390
C         23.50755        10.65319         0.12832
C         23.47715        12.08590         0.24314
C         24.68316         9.90126         0.30520
C         24.71619        12.83726         0.33102
C         23.48817        14.91040         0.76333
C         23.46679        16.39287         0.93390
C         24.73191        14.22321         0.32449
C         24.59183        17.12443         0.22363
C         23.43410        19.26359         0.70584
C         24.60891        18.60159         0.53260
C         25.85187         2.12813        -0.87470
C         25.83711         3.52433        -0.62410
C         27.12678         1.46753        -1.11102
C         27.05308         4.32564        -0.84215
C         25.94327         6.23024         0.28850
C         25.93298         7.76659         0.46428
C         27.19899         5.64065        -0.20567
C         27.19283         8.43263         0.19633
C         25.97793        10.62311         0.38329
C         26.00392        12.10697         0.35653
C         27.19951         9.87885        -0.03439
C         27.22029        12.82838        -0.19729
C         25.96008        14.97849         0.26827
C         25.92392        16.40469         0.35886
C         27.21760        14.28560         0.20179
C         27.11602        17.12686         0.43445
C         25.89125        19.33368         0.22085
C         27.13854        18.55824         0.57423
C         28.30634         2.15326        -1.25792
C         28.30900         3.63593        -1.26303
C         29.60748         1.50457        -1.34903
C         29.58967         4.37226        -1.15368
C         28.43586         6.28850        -0.10890
C         28.38017         7.71547         0.18691
C         29.68899         5.63708        -0.60351
C         29.55100         8.50419         0.46566
C         28.51470        10.63780        -0.09544
C         28.52085        12.10670         0.11137
C         29.70056         9.84726         0.27043
C         29.68105        12.77091         0.40489
C         28.43141        14.95119         0.31448
C         28.40880        16.42277         0.32367
C         29.69079        14.24193         0.44365
C         29.68326        17.17740         0.62171
C         28.28053        19.20583         1.00508
C         29.50267        18.49347         1.27359
C         30.72845         2.21013        -1.61981
C         30.65667         3.68520        -1.97603
C         31.96787         4.40698        -1.96697
C         31.02143         6.30286        -0.69628
C         31.38083         7.44203         0.01046
C         32.06643         5.65990        -1.48344
C         32.39319         8.46462        -0.22478
C         31.00693        10.50509         0.56616
C         30.96714        12.03040         0.65401
C         32.24307         9.77855         0.12089
C         32.19569        12.84256         0.54693
C         30.89051        14.92303         0.62540
C         31.01091        16.43810         0.76174
C         32.13733        14.19846         0.59255
C         31.73846        16.84480         2.02051
C         30.42495        18.90686         2.21434
C         31.49431        18.03599         2.62299
O          5.44777        14.53964        -2.54381
O         17.50707        13.94566        -1.97328
O         19.08546        16.51299         1.88284
O         26.00070         6.84242         1.60583
O         15.63821         3.99875         1.34744
O          2.66719         7.92837        -1.07263
O         23.79371        15.55689         2.06897
O         13.54867        15.24396         1.28770
O          7.38864         8.96007        -2.20871
O         26.20449        11.39123         1.62227
O         15.38734        10.24165        -2.45116
O         12.03235        17.82750         1.47164
O          8.06537         8.93334         1.33466
O         31.01794        11.17673         1.86932
O         29.22481        17.08035        -0.75988
O         18.23142         7.26158         0.87972
O          5.24767         8.67723         1.48178
O         22.56975         8.20300         1.55582
O          3.25841         2.43950         0.26893
O         13.91833        12.76347        -2.39204
O         30.56434         7.78431         1.09787
O         21.92636        10.09623        -1.65932
O         21.29762        14.41707         1.82331
O         27.79957        10.24741        -1.32539
O         27.44254         4.26888        -2.28870
O          5.06736         9.83939        -2.03589
H          6.49470         8.97458        -2.63792
O          9.92313        12.88377        -2.64779
H         10.06623        11.97725        -3.00018
O          2.73938        14.81343         1.06353
H          1.96738        14.60686         1.62996
O          8.11970        16.21700         1.26992
H          8.50523        17.00532         1.70968
O          6.08244         3.56162         2.69259
H          5.86787         4.47388         3.01447
O         15.78246         6.01678        -2.43043
H         15.09148         6.61630        -2.78768
O         21.47319        12.63101        -1.96611
H         21.95479        11.87253        -2.37665
O          4.24458        12.06042        -2.86565
H          4.86080        12.49973        -3.49029
O         17.08643        18.40698         2.37005
H         17.80986        17.79122         2.64760
O         25.89651        19.49970        -1.22271
H         26.81729        19.68711        -1.50276
O         31.84632        16.88252        -0.35070
H         31.24471        16.96157        -1.12563
O         21.77359        17.05442         2.52574
H         21.87516        16.11514         2.81294
O         13.98586         6.81461         1.66615
H         14.30294         5.97496         2.06665
O         12.64153        12.40236         0.97485
H         12.11014        12.97338         1.56928
O          5.73275         1.90986        -0.56112
H          4.76368         1.71311        -0.59397
O         24.20946        17.04204        -1.19707
H         24.73330        17.73233        -1.66935
O          4.84402         5.87743         2.61170
H          4.98548         6.82742         2.83056
O         10.00350         5.96011         2.39022
H          9.20570         5.55426         2.79230
O         30.19956         3.74114        -3.37192
H         29.21767         3.78265        -3.37651
O         21.24694        16.69383        -1.08959
H         22.22053        16.73988        -1.25672
O         27.02825        12.82956        -1.64375
H         27.83015        13.20886        -2.05980
O          3.71577        16.50373        -3.01843
H          4.43068        15.89816        -3.32466
O          9.97078         9.50799        -2.43238
H          9.11476         9.10640        -2.72593
O          4.67908        16.77412         0.49901
H          5.48025        17.08402         0.97210
O          4.96664         4.40981        -0.73755
H          5.29210         3.53828        -1.07719
H          0.70640         2.07964         3.38101
H          0.47802         4.32955         2.43876
H          2.76046         0.74832         3.11371
H          0.21133         6.00357         1.40900
H          0.11515         8.38788         0.95774
H          0.29962        10.41445         0.95912
H          0.44200        12.85870         0.74384
H          0.17561        14.54006        -0.54666
H          0.18032        16.91894        -1.15032
H          1.47741        19.08379        -1.06877
H          5.29583         0.96858         2.63509
H          3.62326        20.31290        -1.18418
H          7.48695         0.34274         0.94264
H          6.09601        20.32006        -0.87828
H          9.86806         0.38600         0.81347
H          8.53126        20.27757        -0.37188
H         12.27525         0.37614         0.37974
H         10.93964        20.27770        -0.43455
H         14.65743         0.33123        -0.02821
H         13.52675        20.31675        -0.10380
H         17.19345         0.28314        -0.43520
H         15.93811        20.31241         0.47311
H         19.66782         0.28800        -0.55782
H         18.42801        20.31072         0.57785
H         22.15169         0.28830        -0.74719
H         20.97121        20.32908         0.36203
H         24.64180         0.32878        -0.99567
H         23.43618        20.36510         0.75218
H         27.13774         0.36688        -1.13508
H         25.90259        20.34839         0.71027
H         29.65725         0.41770        -1.17997
H         28.23305        20.27898         1.24878
H         31.69843         1.69492        -1.69237
H         32.81806         3.94125        -2.48609
H         33.02830         6.19090        -1.55340
H         33.34281         8.17060        -0.70156
H         33.11915        10.42237        -0.06284
H         33.17099        12.33619         0.56583
H         33.06677        14.78563         0.58850
H         32.55398        16.20081         2.38021
H         30.28007        19.85938         2.74317
H         32.10017        18.34065         3.48893
