         276
 CSIRO Nanostructure Databank - Neutral Graphene Oxide Data Set
C        -11.25960         0.64237         0.22471
C        -10.01958         1.41417         0.47338
C         -8.71597         0.65560         0.38732
C         -7.55777         1.47854        -0.10422
C         -6.41409         0.81599        -0.79337
C         -5.15636         1.55412        -1.17709
C         -3.84188         0.82386        -1.03645
C         -2.60106         1.47187        -1.58617
C         -1.35586         0.57616        -1.81666
C         -0.05250         1.41896        -1.79441
C          1.24424         0.62940        -1.83542
C          2.54691         1.40812        -1.87280
C          3.86873         0.68068        -1.72228
C          5.06132         1.50340        -1.26516
C          6.20328         0.88379        -0.52023
C          7.58412         1.33192        -0.99502
C          8.75547         0.71124        -0.17795
C          9.37697         1.63023         0.87294
C         10.39924         0.99943         1.78625
C         -9.94719         2.88107         0.22489
C         -8.79278         3.59263         0.20216
C         -7.44617         2.90265         0.48920
C         -6.09892         3.67590         0.00293
C         -5.14657         3.03772        -1.02122
C         -3.83054         3.78083        -1.16512
C         -2.55945         2.96756        -1.39478
C         -1.26143         3.56117        -0.86379
C         -0.01580         2.88837        -1.44904
C          1.31610         3.49579        -1.04388
C          2.54955         2.89186        -1.66159
C          3.87655         3.65382        -1.64485
C          5.20481         2.92931        -1.77979
C          6.56615         3.71116        -1.71033
C          7.87679         2.85524        -1.35915
C          8.82177         3.63841        -0.43921
C          9.67850         3.02337         0.39940
C         -8.83293         5.11083         0.08818
C         -7.51365         5.78341         0.40291
C         -6.32251         5.16691        -0.25136
C         -5.09211         5.98597        -0.49628
C         -3.79981         5.26360        -0.90924
C         -2.46518         5.93234        -0.69176
C         -1.19915         5.09808        -0.88707
C          0.09965         5.67636        -0.41295
C          1.36254         4.85960        -0.43957
C          2.61509         5.68962        -0.54093
C          3.85087         5.07619        -1.15990
C          5.14136         5.60938        -0.63394
C          6.45576         4.94442        -0.82701
C          7.66754         5.83177        -0.80316
C          9.00222         5.10774        -0.78303
C         -7.43784         6.99418         0.97826
C         -6.16483         7.80133         1.10396
C         -5.01088         7.33991         0.17314
C         -3.66861         7.93517         0.48795
C         -2.39161         7.26142         0.00149
C         -1.15533         7.60528         0.82176
C          0.12758         6.86415         0.51061
C          1.45478         7.57049         0.72567
C          2.68856         6.97072         0.19835
C          3.93953         7.74216         0.22818
C          5.17291         7.07304        -0.29599
C          6.20158         7.81403        -1.13821
C          7.56025         7.17705        -0.89023
C         -5.67230         7.81275         2.54153
C         -4.46239         8.30066         2.83219
C         -3.55542         8.84637         1.73812
C         -2.10991         8.84601         2.22914
C         -1.01053         9.04955         1.20905
C          0.16626         9.68270         1.38477
C          1.52850         9.03798         1.16744
C          2.47101         9.79120         0.19828
C          3.91952         9.27574         0.35161
C          4.95396         9.92025        -0.56297
C          6.05701         9.31258        -1.02965
C        -11.29281        -0.70153         0.06888
C        -10.07435        -1.54835         0.01598
C         -8.76723        -0.80576         0.02467
C         -7.61094        -1.43717        -0.68003
C         -6.34661        -0.68625        -0.87990
C         -5.13536        -1.23656        -0.10369
C         -3.78957        -0.55491        -0.42832
C         -2.49212        -1.36074        -0.40506
C         -1.26352        -0.73300        -1.00692
C         -0.05876        -1.59579        -1.33390
C          1.24148        -0.84328        -1.57121
C          2.53428        -1.49029        -1.16199
C          3.85983        -0.79818        -1.46601
C          4.98225        -1.41120        -0.64698
C          6.12055        -0.59031        -0.12020
C          7.32408        -1.23137         0.61676
C          8.72536        -0.73693         0.20912
C          9.89329        -1.31624         1.04363
C         10.47518        -0.31924         2.01782
C        -10.11255        -2.92948        -0.65586
C         -8.80262        -3.70465        -0.49507
C         -7.52995        -2.94149        -0.61819
C         -6.22677        -3.59709        -0.26499
C         -5.05260        -2.76606         0.17649
C         -3.76269        -3.49255         0.49657
C         -2.56482        -2.86881        -0.19923
C         -1.34799        -3.70106        -0.45915
C         -0.05786        -3.04395        -0.94683
C          1.22034        -3.71142        -0.42609
C          2.52301        -2.94538        -0.77365
C          3.81995        -3.71029        -0.89151
C          5.09022        -2.90897        -0.66685
C          6.25048        -3.55844        -0.00456
C          7.18257        -2.75926         0.87020
C          8.51382        -3.45341         1.10499
C          9.62349        -2.72775         1.49244
C         -8.73613        -5.04915        -0.38081
C         -7.44680        -5.80523        -0.66082
C         -6.15072        -5.09764        -0.22699
C         -4.92934        -5.80122         0.26808
C         -3.78596        -5.02938         0.93025
C         -2.42641        -5.75629         0.79371
C         -1.22642        -5.05615         0.20814
C         -0.04744        -5.88826        -0.22524
C          1.21321        -5.21698        -0.68977
C          2.53140        -5.97186        -0.66849
C          3.82195        -5.18390        -0.62253
C          4.83735        -5.69025         0.38543
C          6.03242        -4.82977         0.79248
C          7.31390        -5.62090         0.99715
C          8.50953        -4.87345         1.13326
C         -7.45089        -7.26832        -0.34765
C         -6.27314        -8.00010         0.07869
C         -5.02720        -7.27198         0.57651
C         -3.72271        -8.04277         0.65707
C         -2.44931        -7.27985         1.17009
C         -1.15741        -8.07619         0.80738
C          0.06664        -7.23338         0.41884
C          1.34163        -7.99476         0.31222
C          2.57840        -7.42353        -0.30988
C          3.90153        -8.13214         0.12040
C          4.78040        -7.09900         0.88640
C          5.97476        -7.62375         1.70332
C          7.26392        -6.97736         1.26818
C         -6.11014        -9.35920        -0.48169
C         -4.90088        -9.91612        -0.68005
C         -3.67519        -9.37857        -0.05168
C         -2.36659       -10.01705        -0.31823
C         -1.23628        -9.37821         0.04304
C         -0.10903        -9.91428         0.90336
C          1.28061        -9.51364         0.39399
C          2.49504        -9.99851         1.15002
C          3.68014        -9.35278         1.02814
C          4.91628        -9.88577         1.60243
C          6.01255        -9.12763         1.79194
O          1.27330        -0.34091        -2.93275
O          4.94567        -0.85855         0.70768
O          3.05143         5.97638        -1.95058
O         -7.54458         1.38137        -1.54390
O          5.04450         7.25283         1.12908
O          2.39819         2.33167        -2.98858
O         -5.99260        -7.69703         1.54539
O         -3.87843        -9.26110         1.42407
O         -5.05002        -5.53044        -1.14999
O         -0.09971         2.46558        -2.81822
O          1.03051        -7.25072         1.52610
O          0.25373        -5.74090        -1.64251
O          4.62159        -8.53727        -0.98262
O         -2.67611         2.37672        -2.71586
O          5.24431         1.67604         0.20656
O          9.31838        -0.31863        -1.05384
O          4.04592        -6.07766         1.58121
O         -9.19216        -1.60116         1.17980
O          5.71470        -4.21347         2.10280
O          5.73407         4.77930         0.42727
O         -5.46472         2.42948        -2.29745
O          8.68208         2.81190        -2.51152
O         -1.45306        -5.05115         1.63787
O         -2.31059         7.19674        -1.42677
O         -3.62920         0.62635         0.41009
O         -0.16783        -2.65556        -2.33121
O         -0.60950        -8.94964         1.91971
O         -2.39992        -3.61572        -1.45598
O          4.08784        -4.66849        -1.95540
O         -4.50050        -2.82338         1.53347
O          2.60848        -1.87791         0.23979
O          6.46330        -2.92064         2.16522
O         -6.10269         5.78145        -1.55009
O          4.50530         3.38985        -2.93654
O         -0.32452         5.79407        -1.80951
O          0.87561         6.62065         1.72620
O         -4.47525         8.44751        -0.60875
O          6.24371        -3.44724        -1.42280
O         -7.12512        -1.08636        -2.03766
O         -1.48370        -0.68696         0.42490
O          4.15384        -0.30069        -2.77668
O         -3.91210         4.75184        -2.26037
O         -7.41059         2.82900         1.86311
O         -9.26595         0.97745         1.66632
O          2.53691        -7.02604        -1.68911
O         -6.59730        -3.35133        -1.66643
O         -1.68397         7.41058         2.23330
O          1.43725         3.67837         0.42083
O          5.81547        -7.15600         3.07276
H          5.18453        -6.39453         3.05492
O          1.99062         9.51908        -1.11484
H          2.54141         9.99456        -1.77023
O          9.90706         5.75467         0.10943
H          9.46594         5.85900         0.97695
O        -10.35910        -2.78825        -2.05936
H         -9.54157        -2.47557        -2.50132
O          1.09498        -3.67296         1.01569
H          1.46336        -2.82138         1.34839
O          8.20175         1.82639         1.74646
H          8.48891         2.32558         2.53959
O         -5.55515        -0.67666         1.17277
H         -4.87560        -0.89254         1.85070
O          7.27424        -0.64470         1.94030
H          6.33923        -0.67496         2.24510
O         -6.48128         9.17351         0.76208
H         -6.51083         9.23341        -0.21770
O         -1.29550         3.21934         0.54742
H         -0.39864         3.37115         0.93605
O         -3.94241        10.18421         1.42139
H         -4.87743        10.13576         1.09684
O         -1.49747         0.09233        -3.15990
H         -1.45924         0.87024        -3.76139
O          4.36342         9.66997         1.66111
H          5.00866         8.99261         1.96776
O          2.09667         9.04393         2.48716
H          1.60978         8.37904         3.02019
O         -5.23736         3.67913         1.17029
H         -5.80906         3.32973         1.91998
O          6.78393         4.27105        -3.00953
H          7.56571         3.76933        -3.38295
O          1.35668       -10.03404        -0.95471
H          2.22516        -9.78102        -1.33958
O          5.86054         7.52861        -2.52556
H          6.19744         6.63981        -2.77901
O         -2.56133        -7.27042         2.59135
H         -2.49327        -8.20135         2.89780
O         11.02070        -1.60884         0.15487
H         10.81441        -1.17281        -0.71194
O         -4.09919        -5.06600         2.31942
H         -3.27251        -4.93183         2.83226
O          7.56263         0.67661        -2.28128
H          8.21828         1.18418        -2.83766
O         -9.18470         5.46356        -1.25909
H         -8.37628         5.42899        -1.81546
O         -7.40504        -5.91723        -2.12197
H         -6.46333        -5.81041        -2.39912
H         11.17048        -0.70551         2.77898
H         10.95720         1.69505         2.43499
H         10.43221         3.62039         0.93918
H          9.45210         5.16562        -1.80991
H          8.46806         7.80030        -0.90628
H          6.81829         9.91233        -1.55300
H          4.90056        11.02022        -0.61510
H          2.44291        10.89356         0.41171
H          0.19015        10.60141         1.99283
H         -1.97647         9.33577         3.22082
H         -4.11172         8.34581         3.87485
H         -6.34083         7.44629         3.33451
H         -8.34680         7.46973         1.37917
H         -9.63855         5.51179         0.75514
H        -10.90018         3.41122         0.06368
H        -12.20116         1.20923         0.15615
H        -12.25436        -1.19476        -0.13943
H        -10.95856        -3.52524        -0.23011
H         -9.65888        -5.64523        -0.31156
H         -8.25651        -7.85120        -0.82437
H         -7.00554        -9.82154        -0.92366
H         -4.81420       -10.86556        -1.22839
H         -2.35110       -11.08968        -0.56431
H         -0.18654       -10.97297         1.24219
H          2.42963       -10.92561         1.74217
H          4.95048       -10.96213         1.83277
H          6.93142        -9.57596         2.19803
H          8.20727        -7.53040         1.40557
H          9.45168        -5.40532         1.33675
H         10.50496        -3.28324         1.85398
