         276
 CSIRO Nanostructure Databank - Neutral Graphene Oxide Data Set
C        -11.17785         0.65219         0.87014
C         -9.89302         1.44418         0.97186
C         -8.82349         0.78773         0.04548
C         -7.54683         1.56107        -0.04357
C         -6.28734         0.81954        -0.28559
C         -5.19660         1.46388        -1.10265
C         -3.91439         0.69490        -1.32710
C         -2.71890         1.43815        -2.00371
C         -1.33262         0.70985        -1.83489
C         -0.02800         1.49946        -2.05499
C          1.29833         0.74818        -2.01158
C          2.59959         1.51555        -1.80090
C          3.87464         0.69841        -1.58912
C          5.07535         1.41323        -0.99815
C          6.34448         0.65348        -0.71882
C          7.31428         1.22241         0.32181
C          8.69373         0.57902         0.24536
C          9.84816         1.44745        -0.26717
C         11.14412         0.66375        -0.25266
C         -9.97932         2.88260         0.51427
C         -8.72642         3.71071         0.59536
C         -7.68699         3.01476        -0.33100
C         -6.44486         3.74098        -0.70369
C         -5.22682         2.96413        -1.19734
C         -3.88575         3.65197        -1.12373
C         -2.66416         2.97972        -1.72844
C         -1.36785         3.76422        -1.77745
C         -0.03750         3.03607        -1.93118
C          1.25687         3.78049        -1.65126
C          2.57451         3.00501        -1.54012
C          3.63876         3.54394        -0.60438
C          4.82686         2.69982        -0.23629
C          6.00769         3.29807         0.52428
C          7.36211         2.77043         0.08596
C          8.59988         3.34425         0.77133
C          9.78503         2.73249         0.55987
C         -8.80006         5.17317         0.20684
C         -7.66522         5.85857        -0.11108
C         -6.32196         5.14575        -0.16922
C         -5.19941         5.92249        -0.84126
C         -3.87849         5.10804        -0.78595
C         -2.61604         5.90985        -0.95543
C         -1.34476         5.25790        -1.40780
C         -0.03125         6.02149        -1.20445
C          1.28706         5.25788        -1.25318
C          2.51752         5.88417        -0.63862
C          3.72991         5.02498        -0.32759
C          4.80387         5.52706         0.59436
C          5.93233         4.66801         1.08521
C          7.18592         5.38022         1.47537
C          8.42454         4.52882         1.70932
C         -7.60664         7.30991        -0.10798
C         -6.41089         7.95633         0.04177
C         -5.14491         7.12169         0.11610
C         -3.88512         7.92287        -0.11198
C         -2.57816         7.17751        -0.13607
C         -1.31996         7.95508         0.00465
C         -0.04975         7.41010        -0.59959
C          1.22032         8.10244        -0.14875
C          2.49059         7.28410        -0.03852
C          3.52694         7.72685         0.95141
C          4.62124         6.79303         1.36323
C          5.84151         7.40009         1.99113
C          7.13096         6.67387         1.87340
C         -6.33427         9.38264         0.30880
C         -5.16366        10.05867         0.39469
C         -3.88497         9.40954         0.03149
C         -2.59252        10.06515         0.33730
C         -1.40831         9.41353         0.32965
C         -0.18080        10.14350         0.84235
C          1.14385         9.42450         0.59652
C          2.23196         9.83115         1.47667
C          3.29184         8.87620         1.92980
C          4.62837         9.54588         2.21684
C          5.78553         8.86104         2.24672
C        -11.24362        -0.63182         0.49797
C        -10.11997        -1.48848        -0.06394
C         -8.87450        -0.62609        -0.41846
C         -7.55957        -1.36386        -0.83139
C         -6.41413        -0.68711        -0.02137
C         -5.02504        -1.36799        -0.06563
C         -3.82301        -0.68112        -0.73132
C         -2.45197        -1.29902        -0.57078
C         -1.24356        -0.68945        -1.26751
C          0.12759        -1.29970        -0.86387
C          1.30312        -0.75837        -1.69655
C          2.58842        -1.57127        -1.66166
C          3.90984        -0.81162        -1.72230
C          5.19364        -1.55215        -1.36867
C          6.42625        -0.83857        -0.88676
C          7.42716        -1.64999         0.00095
C          8.76003        -0.90402         0.19031
C         10.06622        -1.63452        -0.13401
C         11.20277        -0.66978        -0.40484
C         -9.61758        -2.54807         0.85072
C         -8.75805        -3.60488         0.24235
C         -7.55521        -2.90600        -0.50373
C         -6.26069        -3.66479        -0.41077
C         -4.99989        -2.86616        -0.10787
C         -3.66252        -3.54821        -0.05137
C         -2.40771        -2.75252        -0.25484
C         -1.18360        -3.54006        -0.60348
C          0.08148        -2.84329        -0.93420
C          1.34233        -3.64240        -0.67577
C          2.62710        -2.97498        -1.03455
C          3.87868        -3.41976        -0.26822
C          5.11900        -3.01498        -1.03738
C          6.40386        -3.74597        -0.88453
C          7.70336        -2.96134        -0.77792
C          8.90244        -3.80865        -0.43467
C          9.76684        -2.77920        -1.12819
C         -8.35329        -4.72743         1.21867
C         -7.22403        -5.48558         1.10589
C         -6.26130        -5.13387         0.00161
C         -4.88852        -5.81193        -0.20312
C         -3.62981        -5.02517         0.03018
C         -2.35172        -5.74151        -0.29532
C         -1.16064        -4.90665         0.01935
C          0.05536        -5.49563         0.64294
C          1.33774        -4.62506         0.51596
C          2.61088        -5.46688         0.68046
C          3.86670        -4.91646         0.06431
C          5.13259        -5.70641         0.15151
C          6.47260        -4.98694         0.01097
C          7.59782        -5.91514        -0.51393
C          8.91696        -5.15647        -0.41231
C         -7.29374        -6.92078         0.56381
C         -6.08920        -7.78775         1.00893
C         -4.78348        -7.11894         0.57258
C         -3.52753        -7.88918         0.34320
C         -2.28544        -7.21912        -0.19707
C         -0.94426        -7.86572         0.13971
C          0.03275        -7.01227         1.02965
C          1.34246        -7.71516         0.66281
C          2.59853        -6.92953         1.01067
C          3.89294        -7.70055         1.21872
C          5.25865        -6.93139         1.08478
C          6.40611        -7.83192         0.61543
C          7.53813        -7.29958         0.08820
C         -6.04171        -9.27866         0.71500
C         -4.90355        -9.97964         0.55458
C         -3.55627        -9.39018         0.18205
C         -2.29428        -9.95139         0.80046
C         -1.09625        -9.26733         0.72810
C          0.14132        -9.88801         1.07391
C          1.36806        -9.19858         1.00858
C          2.57996        -9.88683         1.03725
C          3.86610        -9.21368         1.19986
C          5.14645        -9.93062         1.01057
C          6.31052        -9.27663         0.80362
O         -5.56541         2.15357        -2.33647
O          4.12926         0.03222        -2.86505
O         -2.32799        -6.56154        -1.49177
O         -0.04207         7.21570        -2.03478
O          2.27441         5.93801        -2.07402
O         -2.20807         3.61487        -2.95477
O          2.06222        -4.03039        -1.86279
O         -9.27635         0.45380        -1.30589
O          5.55527        -6.42866         2.34523
O          3.62881         2.69465         0.59922
O         -7.56748         3.56693        -1.64123
O          8.54967        -2.45602        -1.92676
O          8.93678        -0.19355         1.46369
O          0.64463         1.06079        -3.26206
O          7.45423         3.08420        -1.26864
O          0.71742         3.66310        -2.99509
O         -0.93400        -4.80780         1.46477
O         -3.79669        -7.26057         1.64580
O          1.24049        -7.67398        -0.81098
O          1.73513        -1.54003        -2.82924
O          2.56160        -5.92426         2.07287
O         -0.18291        -7.99939        -1.11259
O          3.64489         8.08752        -0.44493
O          4.92707         5.67841        -0.85403
O          5.63659        -3.87218        -2.10127
O         -5.84473         5.13568         1.23359
O          6.30499        -1.26597        -2.25588
O         -5.11122         6.44072         1.42156
O          6.21744         1.43639        -1.91522
O         -0.75217        -3.41298        -1.98151
O          4.31663        -5.80857        -1.02205
O         -1.82574         7.09497         1.10982
O          3.79618        -8.41508         2.45605
O         -6.98486        -3.56044        -1.67806
O         -3.71194         4.10544         0.26501
O         -7.09091        -6.24619        -0.75913
O         -4.19148        -0.50778        -2.12311
O         -4.93275        -2.09282         1.16905
O         -2.16717        -1.73205         0.78956
O         -1.36835        -0.48612        -2.67725
O         -3.58174        -4.28007         1.25051
O          2.95309         2.49784        -2.82959
O         -2.19267         6.03339        -2.32478
O          4.82343         6.63636         2.79184
O         -3.97604         8.75563        -1.30796
O          5.69225         3.49664         1.93484
O         -6.52077         1.47630         1.01522
O          1.44033         9.34601        -0.86254
O          9.65913         1.72103        -1.66200
H          8.86696         2.32022        -1.77767
O          2.78514         8.30673         3.17784
H          3.50269         7.71807         3.52637
O          3.90665        -2.67036         0.96327
H          3.09792        -2.90395         1.48604
O         -7.37310        -1.15111        -2.21378
H         -7.10737        -1.99808        -2.64121
O         -0.35448        10.37157         2.24868
H         -0.41081         9.50867         2.70910
O         -5.50138         6.27504        -2.17440
H         -4.85384         6.93902        -2.49674
O          6.74561         0.99866         1.59921
H          7.28741         0.29538         2.04367
O          7.39966        -6.17153        -1.92783
H          7.15118        -5.33869        -2.38483
O        -10.57236        -2.04698        -1.30009
H        -10.67308        -1.30947        -1.93866
O         -3.04473         1.31825        -3.38533
H         -2.42802         1.87636        -3.90834
O         -3.45320        -9.64861        -1.25236
H         -2.66366        -9.18381        -1.60570
O         -6.17429        -7.71742         2.45436
H         -5.25489        -7.80016         2.80031
O          0.41825        -0.91369         0.49259
H         -0.29952        -1.26951         1.07348
O         -0.26981        -7.13590         2.40174
H         -0.85717        -6.38683         2.65422
O         -4.81049        -6.11375        -1.61304
H         -5.68392        -6.46460        -1.90505
O          1.35868        -3.71643         1.64840
H          1.42289        -4.27123         2.46092
O         -6.93108        -0.86735         1.30834
H         -6.36272        -0.38535         1.94796
O          8.28776         3.99567         3.03942
H          7.41052         3.54671         3.08171
O         -9.42303         1.30726         2.31533
H         -8.83549         2.07669         2.51647
O          6.78918        -1.84287         1.26186
H          6.86719        -2.79585         1.53555
O         -8.19750         3.66205         1.94406
H         -7.37153         4.20020         1.98966
O          6.85301        -4.51927         1.31818
H          6.51544        -5.19399         1.99645
O         10.46412        -2.32448         1.08087
H         10.39119        -1.67314         1.81388
O         -9.48076        -4.35336        -0.74506
H         -8.82453        -4.89229        -1.24268
H         12.19091        -1.14469        -0.51917
H         12.07039         1.25106        -0.35607
H         10.70390         3.12607         1.02311
H          9.34273         5.16763         1.69735
H          8.04525         7.19292         2.19991
H          6.73173         9.37969         2.46379
H          4.62622        10.62536         2.42916
H          2.01385        10.66663         2.16137
H         -0.12580        11.15381         0.36494
H         -2.61948        11.12352         0.63890
H         -5.15138        11.12538         0.65991
H         -7.28216         9.90885         0.49600
H         -8.54921         7.87714        -0.10906
H         -9.74291         5.72066         0.35616
H        -10.59806         3.05850        -0.38238
H        -12.09327         1.15033         1.22503
H        -12.22304        -1.13563         0.50723
H         -9.44742        -2.27806         1.90416
H         -9.22335        -5.19115         1.71330
H         -8.27506        -7.44211         0.61761
H         -6.97874        -9.83373         0.88380
H         -4.96917       -11.07753         0.49058
H         -2.28903       -10.98738         1.17451
H          0.14188       -10.94925         1.36431
H          2.56591       -10.98805         1.01962
H          5.12652       -11.02935         1.05714
H          7.23366        -9.85980         0.65987
H          8.37471        -7.97247        -0.16464
H          9.86152        -5.71274        -0.51140
H         10.62484        -3.11130        -1.75374
