         634
 CSIRO Nanostructure Databank - Neutral Graphene Oxide Data Set
C         23.34502        69.92659         2.56794
C         23.28611        71.32674         2.33880
C         22.09189        72.05403         2.53804
C         23.20381        74.15191         2.01170
C         22.06014        73.44299         2.36845
C         25.87922        65.69079         2.51246
C         25.84812        67.09224         2.44464
C         24.62458        67.82170         2.63924
C         25.71029        69.85609         1.70598
C         24.52578        69.18770         2.37129
C         25.69131        71.36608         1.76358
C         24.47929        72.04798         1.95400
C         25.60983        74.16678         1.41906
C         24.43659        73.47795         1.80377
C         28.33385        61.42773         2.18756
C         28.30748        62.84420         2.14294
C         27.11372        63.56119         2.36807
C         28.30699        65.69116         2.05469
C         27.08592        64.97111         2.30955
C         28.27051        67.12853         1.97545
C         27.06440        67.80118         2.17080
C         28.20776        69.98346         1.59059
C         27.02550        69.30664         2.24277
C         28.12241        71.36289         1.31025
C         26.87824        72.06566         1.44963
C         28.00047        74.17604         0.79339
C         26.82673        73.48891         1.22657
C         30.67686        57.05888         1.44899
C         30.68211        58.46345         1.82563
C         29.48862        59.27568         1.97720
C         30.74754        61.40610         1.69228
C         29.52275        60.68177         1.99524
C         30.72636        62.83475         1.58181
C         29.52125        63.57458         1.87726
C         30.83263        65.73499         1.83705
C         29.51774        64.98292         1.87960
C         30.70700        67.17902         1.39079
C         29.47297        67.86846         1.61023
C         30.67586        70.04004         1.16292
C         29.40580        69.26331         1.40401
C         30.44520        71.38123         0.53439
C         29.27581        72.06207         0.77134
C         30.38068        74.19732         0.15925
C         29.19398        73.50266         0.51925
C         33.03300        52.82976         0.52845
C         33.05049        54.23927         0.71933
C         31.87190        54.93816         1.04538
C         33.10493        57.05299         0.94752
C         31.87236        56.34853         1.18064
C         33.02476        58.52400         0.68588
C         31.99707        59.23655         1.53339
C         33.10719        61.36169         0.96075
C         31.92767        60.70144         1.37868
C         33.07730        62.79812         0.82718
C         31.86576        63.52068         1.11815
C         32.97631        65.63293         0.57272
C         31.90389        64.97014         1.09442
C         33.14680        67.11014         0.82743
C         31.82893        67.84456         0.88171
C         32.89027        69.88636        -0.03028
C         31.80215        69.23484         0.57282
C         32.84948        71.31655        -0.26641
C         31.51263        72.01658        -0.30653
C         32.77723        74.18261        -0.40709
C         31.57665        73.51905        -0.13593
C         35.26572        48.55996        -0.44971
C         35.27267        49.96027        -0.36180
C         34.14375        50.70728        -0.00247
C         35.43606        52.84541         0.01874
C         34.18578        52.12524         0.16606
C         35.48582        54.24984         0.25254
C         34.28936        54.95259         0.57280
C         35.55101        57.10523         0.49611
C         34.30268        56.37725         0.67510
C         35.57571        58.51785         0.50814
C         34.34981        59.24726         0.67257
C         35.51387        61.37611         0.13222
C         34.30941        60.63461         0.66030
C         35.55959        62.80339         0.66278
C         34.23187        63.48788         0.47331
C         35.38750        65.62839        -0.15854
C         34.09224        64.86691        -0.08491
C         35.33176        67.01836        -0.38956
C         34.18258        67.76389        -0.05583
C         35.24117        69.84219        -0.85695
C         34.09700        69.14816        -0.35386
C         35.15164        71.29508        -1.23533
C         33.96781        72.01835        -0.65986
C         35.19175        74.14624        -0.89234
C         33.98180        73.47155        -0.69331
C         37.64030        44.19953        -0.77150
C         37.58365        45.59687        -1.03396
C         36.42662        46.36727        -0.86583
C         37.67856        48.48064        -0.82710
C         36.44942        47.80394        -0.77661
C         37.75536        49.89710        -0.28425
C         36.54132        50.69269        -0.74987
C         37.85233        52.81336        -0.35877
C         36.62081        52.14559        -0.31594
C         37.92955        54.23274        -0.11279
C         36.73114        54.95928         0.16216
C         38.02538        57.07887         0.31624
C         36.77457        56.38126         0.32554
C         38.07929        58.51417         0.42099
C         36.83463        59.23402         0.42573
C         38.03582        61.36834         0.23321
C         36.82665        60.64351         0.33824
C         37.97877        62.82399         0.02634
C         36.73656        63.54880         0.09910
C         37.83801        65.72697        -0.38864
C         36.61988        64.91660        -0.19772
C         37.78166        67.06936        -0.97609
C         36.43060        67.67758        -1.19619
C         37.66409        69.88751        -1.32397
C         36.45194        69.17801        -1.08832
C         37.66391        71.32921        -1.27455
C         36.45531        72.03424        -1.12117
C         37.66835        74.15445        -1.08875
C         36.44437        73.45819        -1.04566
C         40.10413        39.99952        -0.09965
C         40.10749        41.37685        -0.35759
C         38.88530        42.11351        -0.43451
C         40.15507        44.27755        -0.60391
C         38.85524        43.49332        -0.65465
C         40.12042        45.45470        -1.58518
C         38.83072        46.26552        -1.45767
C         40.19730        48.36577        -0.97463
C         38.87113        47.77131        -1.28452
C         40.24595        49.82740        -0.65737
C         39.02469        50.63365        -0.62100
C         40.32661        52.70563        -0.41766
C         39.08466        52.03817        -0.53746
C         40.41653        54.20564        -0.56449
C         39.16846        54.93178        -0.12768
C         40.49873        56.99534         0.28301
C         39.22935        56.32044         0.13371
C         40.54345        58.39342         0.54129
C         39.33330        59.22598         0.45982
C         40.46735        61.49531         0.05209
C         39.29512        60.67519         0.31982
C         40.37795        62.83850        -0.44357
C         39.14106        63.52381        -0.33004
C         40.27282        65.70496        -1.06312
C         39.14995        64.99586        -0.44294
C         40.20217        67.04033        -1.38818
C         38.93006        67.74481        -1.33444
C         40.09419        69.90867        -1.71710
C         38.90080        69.19408        -1.53640
C         40.11802        71.33116        -1.56069
C         38.90174        72.03889        -1.34843
C         40.13988        74.15963        -1.26802
C         38.90205        73.46995        -1.23459
C         42.45174        35.78572         0.95073
C         42.47547        37.16309         0.62554
C         41.27915        37.89709         0.42556
C         42.58212        39.87882        -0.19003
C         41.31290        39.24708         0.04487
C         42.59717        41.22441        -0.87167
C         41.36021        42.05558        -0.59919
C         42.63846        44.06354        -1.15319
C         41.40015        43.42789        -0.81828
C         42.64732        45.48129        -1.57673
C         41.40219        46.26969        -1.47288
C         42.69826        48.36337        -1.22518
C         41.43945        47.63693        -1.34616
C         42.70304        49.81247        -0.99114
C         41.53523        50.50452        -0.79738
C         42.89219        52.62525        -0.44045
C         41.55051        51.91789        -0.39424
C         42.92657        54.07024        -0.09607
C         41.67803        54.83706        -0.01339
C         43.06724        56.78180         0.60788
C         41.70982        56.18804         0.26466
C         43.05556        58.27029         0.60116
C         41.85643        58.91744         0.86015
C         42.90681        61.65641        -0.26468
C         41.77932        61.10635         0.37066
C         42.74338        62.84180        -1.02726
C         41.53497        63.52530        -0.91321
C         42.57869        65.55911        -2.02365
C         41.60673        65.03229        -0.97522
C         42.59240        67.07616        -1.99295
C         41.42026        67.74350        -1.80796
C         42.62862        69.94012        -1.83357
C         41.34996        69.20966        -2.18496
C         42.60775        71.34600        -1.63156
C         41.35670        72.04711        -1.55664
C         42.61665        74.16366        -1.38704
C         41.35696        73.46635        -1.39771
C         44.81780        33.00824         1.78761
C         43.63079        33.68474         1.50810
C         44.90212        35.76135         1.13879
C         43.64332        35.07028         1.18731
C         44.94689        37.12974         0.78457
C         43.73537        37.83680         0.49626
C         45.09970        39.83995        -0.20926
C         43.76572        39.19677         0.06781
C         45.06957        41.34343        -0.19988
C         43.86554        42.00839        -0.64003
C         45.23075        44.02681        -1.11252
C         43.86374        43.37405        -0.94620
C         45.21772        45.53304        -1.11639
C         43.97397        46.24505        -1.47467
C         45.11521        48.39161        -0.69555
C         43.89754        47.68239        -1.22645
C         45.14381        49.81404        -1.18243
C         43.97695        50.53525        -1.10324
C         45.22243        52.69899        -1.41401
C         44.02911        51.97647        -1.07511
C         45.17910        54.16875        -1.30976
C         44.26145        54.79503        -0.35685
C         45.28797        57.00478        -0.67854
C         44.19933        56.24297        -0.23525
C         45.35318        58.43118        -0.36275
C         44.31689        58.93836         0.42630
C         45.29152        61.44886        -0.91255
C         44.22752        61.11625        -0.10724
C         45.21013        62.69161        -1.72893
C         43.90856        63.45170        -1.69662
C         45.15929        65.58403        -2.36407
C         43.91281        64.87677        -1.92204
C         45.06720        66.99480        -1.75456
C         43.87527        67.81459        -2.33826
C         45.05824        69.94211        -1.59972
C         43.84244        69.25079        -1.83918
C         45.06377        71.34150        -1.51681
C         43.84045        72.05937        -1.55436
C         45.10630        74.28317        -1.58939
C         43.81808        73.49915        -1.46342
C         46.04183        33.67659         1.78633
C         47.32709        35.77536         1.54999
C         46.11092        35.06332         1.47825
C         47.37473        37.16304         1.28775
C         46.19555        37.83731         0.83845
C         47.38480        39.96546         0.88648
C         46.23991        39.22917         0.56317
C         47.32813        41.47121         0.93648
C         46.20328        42.05581         0.11731
C         47.57420        44.13664        -0.19879
C         46.19210        43.55891        -0.00274
C         47.70151        45.47416        -0.87849
C         46.38843        46.22012        -0.91822
C         47.59166        48.35096        -0.67792
C         46.41535        47.65557        -0.86692
C         47.53892        49.83239        -0.64876
C         46.45063        50.45552        -1.51037
C         47.74478        52.57963        -1.51377
C         46.44031        51.97336        -1.53008
C         48.14960        53.74818        -2.34613
C         45.90961        55.11235        -2.08303
C         47.54150        57.10627        -1.92800
C         46.25751        56.38703        -1.52039
C         47.62107        58.51474        -1.33735
C         46.47965        59.21556        -0.85909
C         47.67905        61.32489        -1.38533
C         46.49824        60.65010        -0.96817
C         47.66344        62.73775        -1.69778
C         46.47908        63.44849        -1.87756
C         47.62205        65.62635        -1.84135
C         46.45868        64.87741        -2.01281
C         47.58387        67.06039        -1.55971
C         46.37126        67.74100        -1.65971
C         47.56884        69.87212        -1.13990
C         46.25904        69.14554        -1.13413
C         47.49658        71.30215        -0.88276
C         46.39403        72.07265        -1.57978
C         47.49029        74.18557        -0.84708
C         46.35037        73.52853        -1.18658
C         48.56304        37.92235         1.48794
C         49.78112        40.09716         1.74110
C         48.55398        39.30221         1.35363
C         49.84356        41.47446         1.11548
C         48.67097        42.13186         0.72034
C         50.00561        44.17534         0.24137
C         48.73018        43.47895         0.23179
C         50.06863        45.57890         0.00788
C         48.86968        46.28587        -0.36772
C         50.05673        48.44509        -0.18796
C         48.84196        47.67122        -0.41077
C         50.05345        49.81796        -0.28327
C         48.81356        50.58563        -0.45771
C         50.10696        52.71585        -0.80035
C         48.88256        51.95845        -0.99528
C         50.12159        54.10356        -0.96220
C         49.05188        54.79531        -1.72408
C         50.02170        57.07349        -1.03893
C         48.87444        56.30392        -1.62358
C         50.08063        58.42357        -1.25349
C         48.86029        59.19492        -1.42636
C         50.15469        61.34747        -1.48147
C         48.90456        60.61501        -1.42624
C         50.18227        62.71144        -1.59971
C         48.93642        63.41948        -1.91685
C         50.15136        65.64443        -1.46204
C         48.92472        64.95723        -1.91685
C         50.04368        67.03695        -1.11491
C         48.80374        67.71463        -1.14309
C         50.02803        69.88105        -0.60310
C         48.72728        69.11162        -0.56184
C         50.02753        71.29757        -0.50876
C         48.75376        72.04182        -0.50378
C         49.96291        74.18299        -0.62005
C         48.77281        73.51361        -0.67146
C         51.08635        42.12435         1.03677
C         52.41782        44.19962         0.72639
C         51.18315        43.48465         0.64827
C         52.47356        45.57028         0.52290
C         51.28551        46.28501         0.19919
C         52.43810        48.44658         0.46581
C         51.31129        47.73956         0.11004
C         52.38689        49.95342         0.58706
C         51.37235        50.53552        -0.39698
C         52.46693        52.74404        -0.05673
C         51.28489        52.04314        -0.30422
C         52.48665        54.18028        -0.09699
C         51.21090        54.87472        -0.35103
C         52.49288        57.07281        -0.35479
C         51.19451        56.37360        -0.45954
C         52.56209        58.44484        -0.62432
C         51.38910        59.12112        -1.21892
C         52.62834        61.35278        -0.96483
C         51.43376        60.60327        -1.41034
C         52.62298        62.74372        -1.05218
C         51.48296        63.47580        -1.74132
C         52.52637        65.63644        -0.90082
C         51.35366        64.94064        -1.32166
C         52.46400        67.02083        -0.64171
C         51.24937        67.73629        -0.74128
C         52.49202        69.89015        -0.47319
C         51.23574        69.16570        -0.56570
C         52.47519        71.34018        -0.40577
C         51.23683        72.02647        -0.43483
C         52.37415        74.17976        -0.12429
C         51.22288        73.49112        -0.39282
C         53.78986        46.31623         0.60042
C         54.90576        48.55340         0.94433
C         53.62535        47.76391         1.09829
C         54.95281        49.93630         0.68548
C         53.71607        50.65836         0.41992
C         54.93199        52.80298         0.26792
C         53.70998        52.03025         0.21248
C         54.90227        54.17955         0.27386
C         53.65635        54.90151         0.12799
C         54.84402        57.08098         0.29989
C         53.66036        56.36014         0.04926
C         54.89204        58.48702         0.13632
C         53.74408        59.18505        -0.35732
C         54.92193        61.33532        -0.08213
C         53.76620        60.62372        -0.48318
C         54.90985        62.77271        -0.13713
C         53.76314        63.47400        -0.61541
C         54.95003        65.59586        -0.35709
C         53.76675        64.90359        -0.64781
C         54.97446        67.07435        -0.64628
C         53.69734        67.73246        -0.12747
C         54.98829        69.94679        -0.62902
C         53.69086        69.21041        -0.40865
C         54.91990        71.38241        -0.16363
C         53.68708        72.04314        -0.15708
C         54.90298        74.21223         0.15964
C         53.61223        73.46610         0.34364
C         56.17038        50.64269         0.63412
C         57.34154        52.84228         0.92963
C         56.25827        52.07901         0.21283
C         57.33529        54.21068         0.94215
C         56.20119        54.95932         0.26534
C         57.29278        57.12731         0.94465
C         56.00572        56.33734         0.91232
C         57.30613        58.49688         0.82384
C         56.09703        59.21485         0.44234
C         57.21971        61.35304         0.88475
C         56.09138        60.62061         0.35759
C         57.10850        62.81128         1.02307
C         56.02799        63.51658         0.31712
C         57.31470        65.65423         0.42475
C         56.08750        64.91517         0.14672
C         57.34632        67.06410         0.22584
C         56.20480        67.79302        -0.14613
C         57.36675        69.93130         0.26452
C         56.20141        69.20154        -0.12416
C         57.34334        71.37649         0.30400
C         56.12250        72.08017         0.12391
C         57.36956        74.22348         0.28849
C         56.10982        73.53524         0.19767
C         58.45821        54.98592         1.37962
C         59.72214        57.09129         1.42336
C         58.49972        56.38055         1.26180
C         59.83619        58.48363         1.33007
C         58.60998        59.28180         0.84632
C         59.43648        61.50228         1.85738
C         58.36481        60.70935         1.33770
C         59.62099        62.85352         1.58053
C         58.39287        63.60134         1.30660
C         59.70605        65.68293         1.14886
C         58.46975        64.99282         0.87285
C         59.73873        67.05793         1.03137
C         58.66680        67.77840         0.27572
C         59.74801        69.95728         0.88487
C         58.55970        69.24639         0.57702
C         59.75778        71.38632         0.78600
C         58.55527        72.08811         0.51926
C         59.83265        74.21220         0.55137
C         58.56494        73.53430         0.45482
C         61.14470        59.04154         1.31271
C         62.28797        61.35427         1.25251
C         61.36601        60.40938         1.65338
C         62.17499        62.78852         1.50369
C         60.90915        63.51982         1.58763
C         62.15482        65.66555         1.51787
C         60.91667        64.92961         1.49302
C         62.17316        67.07338         1.51564
C         60.87350        67.82282         1.63976
C         62.15560        69.96450         1.36583
C         60.94856        69.26481         1.21028
C         62.16148        71.38796         1.28454
C         60.98627        72.08920         0.98471
C         62.30427        74.18297         0.74360
C         61.00526        73.52906         0.79516
C         63.36170        63.52013         1.45013
C         64.61153        65.65152         1.53930
C         63.40016        64.94249         1.51819
C         64.63742        67.06664         1.55255
C         63.39201        67.79663         1.53482
C         64.63568        69.92257         1.54100
C         63.40236        69.22530         1.52468
C         64.67563        71.35531         1.51453
C         63.39900        72.15248         1.67781
C         64.79448        74.18547         0.83565
C         63.45206        73.52762         1.04727
C         65.85513        67.78352         1.58826
C         67.10112        69.91072         1.71389
C         65.87256        69.18695         1.59330
C         67.11112        71.28963         1.72950
C         65.89123        72.02113         1.57613
C         67.26428        74.07018         1.15209
C         65.93303        73.53809         1.63902
C         68.35292        72.07494         2.08255
C         68.39487        73.38496         1.34868
O         47.77858        71.63792         0.54632
O         48.10661        53.62774        -3.56352
O         42.40885        51.99051         0.81733
O         38.70617        47.15721        -2.61309
O         49.49168        55.69581        -2.81676
O         43.95738        54.17107         0.94707
O         40.24463        48.77861         0.44182
O         60.41102        60.84658         2.59526
O         50.78529        55.71174         0.81104
O         57.36602        63.36407         2.35148
O         49.06689        64.18992        -3.16987
O         44.37591        62.64429        -2.93304
O         31.76754        58.74394         2.83478
O         41.94785        60.19526         1.40595
O         45.38494        39.46687        -1.66955
O         51.68400        59.71169        -2.55018
O         47.80408        50.44331         0.63538
O         43.44708        45.77739        -2.77384
O         38.71014        65.65847         0.81003
O         44.43826        60.22547         0.95358
O         25.65462        69.49974         0.29505
H         24.82140        69.85939        -0.07432
O         42.14738        65.42090         0.32224
H         41.43370        65.33429         0.98971
O         44.70429        66.71003        -0.37234
H         44.89899        67.52691         0.16170
O         40.11389        44.87745        -2.91005
H         39.85325        45.59047        -3.53409
O         37.70439        49.79549         1.16669
H         38.55493        49.38284         1.44749
O         63.29804        72.39829         3.12606
H         64.07213        72.96925         3.36343
O         48.47880        68.94736         0.92171
H         48.39094        69.87681         1.25643
O         40.25030        44.86975         0.71957
H         40.25204        44.14586         1.37997
O         42.55306        40.91861        -2.31595
H         42.47228        41.77323        -2.79138
O         46.76925        72.07966        -2.99486
H         46.26269        72.81055        -3.42075
O         31.32041        65.81083         3.23285
H         30.62478        66.25485         3.76356
O         44.94505        48.46467         0.76403
H         44.17431        49.04264         0.95413
O         51.96817        50.21404         1.96190
H         51.91960        51.18703         2.08398
O         60.57557        67.88300         3.08953
H         61.32782        68.34058         3.52262
O         55.64866        56.05938         2.30018
H         55.50424        56.91512         2.75537
O         54.35266        46.33171        -0.71878
H         55.03951        47.03185        -0.74646
O         32.51081        58.64728        -0.69429
H         33.07865        58.09444        -1.27188
O         40.52201        54.41210        -2.03822
H         39.65930        54.15120        -2.42764
O         43.33696        56.46548         2.01778
H         43.59305        55.50828         2.05256
O         59.13631        67.74465        -1.15201
H         58.51468        68.30543        -1.66588
O         31.06193        71.80806        -1.69988
H         31.75881        72.17363        -2.28678
O         45.76907        43.53878        -2.37131
H         45.39061        44.09107        -3.08872
O         65.12326        74.11461        -0.56669
H         65.10494        73.17376        -0.83859
O         51.90682        50.24477        -1.72736
H         51.27034        50.58531        -2.39082
O         53.33936        47.69437         2.53053
H         52.94642        48.56210         2.78439
O         51.80061        63.49325        -3.16532
H         50.97810        63.78483        -3.62727
O         33.68784        64.67336        -1.50295
H         34.23466        63.94044        -1.86228
O         35.31823        61.49499        -1.31318
H         35.20979        60.59091        -1.67653
O         45.68971        44.09552         1.25742
H         46.19330        43.64221         1.97559
O         45.13988        65.61779        -3.83543
H         45.18089        64.68214        -4.13777
O         42.04424        65.16595        -3.32826
H         42.66528        65.49260        -4.01449
O         43.95225        67.96814        -3.78401
H         44.36699        67.15348        -4.16236
O         41.28380        69.22843        -3.65254
H         42.13881        68.85183        -3.97609
O         58.93176        59.49893        -0.57886
H         58.92010        58.62243        -1.02006
O         53.72066        67.57803         1.32437
H         52.89413        67.96512         1.68236
O         31.16042        70.36881         2.53758
H         30.48089        70.94543         2.94970
O         46.97459        41.81307         2.34270
H         46.19214        41.27269         2.58639
O         48.02168        45.18972        -2.29254
H         48.86278        44.68478        -2.30563
O         46.17304        54.91876        -3.38662
H         45.96256        54.00430        -3.66343
O         46.58431        40.15971        -2.06364
H         46.24612        41.01921        -2.42283
O         36.07992        67.38080        -2.60220
H         35.14675        67.65347        -2.73558
O         56.58122        55.14768        -1.11950
H         56.73850        54.24798        -1.49154
O         46.80682        50.02364        -2.87592
H         46.10696        50.33651        -3.48687
O         35.78192        62.69957         2.10074
H         35.88593        63.60580         2.46002
O         65.76287        73.90455         3.03958
H         66.56118        73.55943         3.50917
O         33.68647        67.17834         2.19505
H         33.00528        66.77443         2.78862
O         50.97295        39.35569         1.46355
H         51.00437        39.17493         0.50189
O         54.94851        67.22932        -2.10433
H         55.62074        66.62705        -2.48744
O         55.15359        70.00879        -2.09713
H         55.04715        69.07834        -2.42188
O         68.27398        72.37278         3.50021
H         68.18544        71.52288         3.97979
O         53.45345        73.36121         1.82257
H         54.25977        72.91812         2.16477
O         56.64805        52.09939        -1.23187
H         55.98198        51.56240        -1.71376
O         45.91663        68.96478         0.31650
H         46.77441        68.74599         0.78082
O         36.60066        50.70226        -2.20648
H         35.76883        51.09949        -2.53879
O         34.86112        71.28015        -2.70012
H         35.64292        70.88226        -3.14187
O         45.27556        74.58903        -2.99995
H         44.41706        74.91408        -3.34381
O         27.07735        69.66128         3.65999
H         27.88345        69.25595         4.04215
O         47.51994        57.31312        -3.35352
H         48.12318        56.64973        -3.76542
H         23.16082        75.24372         1.88957
H         25.56553        75.25400         1.25543
H         27.95199        75.26650         0.65219
H         30.37102        75.29839         0.15547
H         32.80544        75.28301        -0.37856
H         35.20036        75.24632        -0.86261
H         37.66981        75.25187        -1.01028
H         40.14905        75.25529        -1.16714
H         42.60458        75.26238        -1.30744
H         45.02811        75.25085        -1.01634
H         47.47167        75.28168        -0.73312
H         49.98131        75.28050        -0.70183
H         52.35752        75.27977        -0.08117
H         54.89072        75.31178         0.21145
H         57.37122        75.32372         0.27466
H         59.85670        75.30279         0.40539
H         62.34493        75.22145         0.37846
H         64.73730        75.27194         1.09462
H         67.27602        75.04249         0.63722
H         22.45000        69.41615         2.95686
H         21.17919        71.51773         2.83524
H         21.11582        73.98289         2.52737
H         24.95107        65.13382         2.70903
H         23.73779        67.27229         2.99221
H         27.39713        60.88898         2.39579
H         26.18521        63.01201         2.58357
H         29.71541        56.52593         1.40558
H         28.51142        58.77029         1.95926
H         32.08490        52.28678         0.65690
H         30.93391        54.38173         1.18546
H         34.32789        48.01561        -0.25905
H         33.19788        50.18541         0.21089
H         36.69592        43.65486        -0.61535
H         35.48485        45.85428        -0.61714
H         39.14427        39.48760         0.06531
H         37.93588        41.55975        -0.36866
H         41.48461        35.26606         1.02199
H         40.30988        37.39493         0.56182
H         44.78635        31.93634         2.02929
H         42.67088        33.14941         1.53679
H         46.96612        33.13563         2.03501
H         48.24409        35.25173         1.85889
H         49.48167        37.41653         1.81967
H         49.75523        40.24172         2.85796
H         51.98896        41.58441         1.35888
H         53.33054        43.65074         1.00319
H         54.48847        45.77243         1.30049
H         55.84710        48.04343         1.20616
H         57.11162        50.09508         0.79508
H         58.18518        52.28404         1.36454
H         59.36762        54.45427         1.70131
H         60.62842        56.50843         1.65138
H         61.99844        58.37299         1.11443
H         63.15511        61.02917         0.65722
H         64.31530        62.97860         1.35690
H         65.56268        65.09841         1.54762
H         66.80574        67.23053         1.62156
H         68.04072        69.34954         1.83513
H         69.27863        71.46752         1.88479
H         69.36556        73.77859         1.01221
