         598
 CSIRO Nanostructure Databank - Neutral Graphene Oxide Data Set
C         23.13422        70.15017        -1.77525
C         23.14446        71.55976        -1.66796
C         21.94835        72.32024        -1.78320
C         23.16369        74.38012        -1.38227
C         21.96958        73.70630        -1.64367
C         25.46450        65.73218        -1.83074
C         25.47826        67.22676        -1.54203
C         24.31364        67.97635        -1.69636
C         25.55683        70.08996        -1.38166
C         24.32005        69.40217        -1.61656
C         25.60307        71.52193        -1.32719
C         24.38024        72.24545        -1.43264
C         25.60279        74.31864        -0.96747
C         24.38459        73.66514        -1.27531
C         27.70765        61.40111        -0.65537
C         27.72351        62.78490        -0.72549
C         26.54110        63.58274        -1.03457
C         27.88936        65.63899        -1.06319
C         26.59563        64.93699        -1.20436
C         27.94867        67.15136        -1.12051
C         26.69074        67.90326        -1.26427
C         27.97280        69.99729        -0.94219
C         26.73378        69.31846        -1.17162
C         28.03227        71.40751        -1.04370
C         26.84815        72.21391        -1.16289
C         27.96963        74.40920        -0.44519
C         26.83907        73.64681        -0.91942
C         30.10276        56.97414         0.15496
C         30.04501        58.46059         0.39931
C         28.86607        59.23877        -0.16456
C         30.13601        61.35164        -0.20244
C         28.88804        60.61525        -0.32506
C         30.16533        62.72225        -0.28819
C         28.96522        63.50453        -0.48257
C         30.20836        65.63275        -0.00605
C         29.00826        64.89208        -0.47042
C         30.20728        67.15357         0.14833
C         29.12130        67.86892        -0.60225
C         30.39304        69.96185        -0.26655
C         29.16821        69.26221        -0.60971
C         30.48301        71.35815        -0.48218
C         29.34055        71.97034        -1.05673
C         30.49598        74.37492         0.00060
C         29.30582        74.05074        -0.66186
C         32.63061        52.74139         0.79472
C         32.57871        54.13411         0.66856
C         31.38391        54.84052         0.38190
C         32.55273        57.01216         0.14775
C         31.32021        56.27209         0.24825
C         32.52687        58.41751        -0.03374
C         31.34774        59.13937         0.07500
C         32.68922        61.26313        -0.14133
C         31.38134        60.62706         0.25128
C         32.74675        62.72273        -0.30124
C         31.45704        63.44553        -0.40835
C         32.79495        65.59002        -0.25545
C         31.49600        64.88246        -0.03417
C         32.80778        67.08463        -0.17328
C         31.55507        67.83377        -0.02006
C         32.88077        69.92971         0.07101
C         31.60749        69.22110        -0.02587
C         32.89044        71.39610         0.10345
C         31.69468        72.11258        -0.20036
C         32.91139        74.20586         0.16471
C         31.68349        73.55700        -0.06657
C         35.09684        48.30029         1.44160
C         34.74745        49.67765         1.17346
C         33.75509        50.54091         1.54801
C         35.13953        52.82858         1.25583
C         33.82393        52.03484         1.31102
C         35.13827        54.22681         0.76764
C         33.83710        54.91539         0.83637
C         35.12722        56.96371        -0.01179
C         33.84959        56.37162         0.43141
C         35.10354        58.37172        -0.41966
C         33.80350        59.11262        -0.33763
C         35.13188        61.18617         0.34700
C         33.85118        60.56888        -0.15819
C         35.16762        62.69555         0.26078
C         34.00015        63.43760         0.03594
C         35.24729        65.54843         0.26051
C         34.04038        64.84604         0.02479
C         35.26117        67.00997         0.27498
C         34.08432        67.76097         0.11810
C         35.39433        69.90903         0.20235
C         34.06358        69.19527         0.18850
C         35.28358        71.30420         0.76669
C         34.09154        72.08409         0.46749
C         35.34464        74.29984         0.33491
C         34.12537        73.52708         0.38881
C         37.90496        44.37751         0.81455
C         37.83355        45.78592         1.00661
C         36.58400        46.41140         1.15706
C         37.67564        48.59361         1.64668
C         36.41548        47.80853         1.34035
C         37.75951        50.10595         1.62135
C         36.63721        50.88354         1.06966
C         37.70168        53.03610         1.57404
C         36.47369        52.18608         1.35755
C         37.58821        54.13359         0.52907
C         36.30881        54.89009         0.47635
C         37.57805        56.91473        -0.43603
C         36.33704        56.27657         0.02608
C         37.58413        58.35997        -0.54527
C         36.38983        59.09887        -0.35707
C         37.60030        61.17100         0.14003
C         36.40043        60.50009        -0.10986
C         37.57984        62.53271         0.74739
C         36.36102        63.37093         0.58320
C         37.64134        65.49260         0.99320
C         36.40913        64.78178         0.56628
C         37.79461        66.94033         0.56310
C         36.48646        67.70452         0.64090
C         37.69173        69.70309         1.39121
C         36.48796        69.06240         0.82529
C         37.65670        71.16490         1.69006
C         36.34088        71.81176         1.47112
C         37.85786        74.15209         0.73914
C         36.50604        73.90421         1.01102
C         40.49975        40.17672         0.27270
C         40.40357        41.53468         0.60711
C         39.18072        42.25843         0.60059
C         40.37096        44.45061         0.70699
C         39.11153        43.66221         0.74172
C         40.34686        45.93800         0.88950
C         39.04409        46.59342         1.12627
C         40.25945        48.65010         1.81662
C         38.99371        47.90738         1.51938
C         40.28736        50.18108         1.89669
C         39.02228        50.88262         1.63494
C         40.22438        52.91591         1.03697
C         38.99293        52.23473         1.42209
C         40.14067        54.11831         0.34147
C         38.82901        54.74033         0.00306
C         39.92814        56.50956        -1.26020
C         38.78030        56.12000        -0.56200
C         39.93705        58.71168        -1.32372
C         38.79634        59.15899        -0.65484
C         40.07478        61.18669        -0.04384
C         38.83784        60.50560        -0.13573
C         40.06743        62.63866         0.25628
C         38.88853        63.23847         0.94572
C         40.25092        65.39569         1.42109
C         38.89640        64.72042         1.22182
C         40.22206        66.91453         1.35312
C         39.00134        67.62879         1.19482
C         40.16805        69.73889         1.94890
C         38.97939        69.00202         1.37596
C         40.10531        71.23958         1.68198
C         38.93465        71.95010         1.61573
C         40.18751        74.07836         1.35654
C         38.98156        73.40642         1.27419
C         43.12471        36.07861        -0.67321
C         43.06771        37.42789        -0.32352
C         41.81088        38.12396        -0.18936
C         42.99514        40.12552         0.60678
C         41.72962        39.44450         0.23062
C         42.94586        41.56785         0.97841
C         41.62245        42.25997         1.05296
C         42.89375        44.52809         1.09011
C         41.62598        43.75392         1.09896
C         42.85077        45.94237         1.21767
C         41.59978        46.63769         1.25677
C         42.77814        48.74493         1.68435
C         41.56476        47.99756         1.55595
C         42.76487        50.16705         1.89549
C         41.55614        50.92812         1.76120
C         42.70068        52.98862         0.91626
C         41.51088        52.27066         1.28804
C         42.65757        53.97362        -0.16949
C         41.28448        54.57390        -0.45222
C         42.40764        56.44694        -1.59228
C         41.23519        55.89310        -1.12033
C         42.40576        58.74068        -1.63890
C         41.19537        59.35147        -1.21594
C         42.53886        61.26798        -0.51890
C         41.27077        60.61030        -0.55396
C         42.59366        62.60566         0.11179
C         41.33461        63.42073         0.13716
C         42.67077        65.44421         1.02700
C         41.36685        64.91932         0.46793
C         42.67897        66.90650         1.24337
C         41.47079        67.60553         1.45322
C         42.65652        69.75488         1.46918
C         41.47939        69.05810         1.57782
C         42.67023        71.22287         1.30857
C         41.38572        71.97031         1.45362
C         42.71680        74.09152         1.59300
C         41.41774        73.40832         1.91437
C         45.65876        33.38700        -1.34681
C         44.42887        34.02894        -1.18049
C         45.59545        36.12115        -0.68151
C         44.37117        35.40311        -0.84391
C         45.56398        37.50549        -0.34404
C         44.30803        38.14956        -0.14780
C         45.48246        40.24101         0.30795
C         44.28726        39.51759         0.20091
C         45.43836        41.71416         0.45205
C         44.15111        42.41388         0.71149
C         45.33361        44.58432         1.14085
C         44.12628        43.85970         1.06894
C         45.31939        45.99210         1.26745
C         44.06978        46.67610         1.34378
C         45.28089        48.81292         1.58224
C         44.03909        48.08932         1.53817
C         45.27534        50.24307         1.73209
C         44.02667        50.79549         2.07971
C         45.18662        53.12897         0.84296
C         43.96730        52.73319         1.45735
C         45.10144        54.27814        -0.02327
C         43.87098        54.73849        -0.48415
C         44.96263        56.90279        -1.20650
C         43.81470        55.88723        -1.46541
C         44.87840        58.38748        -1.53900
C         43.65489        59.22447        -1.27841
C         45.01920        61.29401        -0.77661
C         43.73034        60.58876        -0.82061
C         45.10528        62.67127        -0.30182
C         43.91559        63.26333         0.34550
C         45.19453        65.47368         0.60343
C         43.95443        64.70055         0.80840
C         45.20083        66.85901         0.87018
C         43.97866        67.53210         1.39067
C         45.15003        69.82342         1.08220
C         43.96625        69.08024         1.48681
C         45.15564        71.24032         1.18659
C         43.94561        71.95402         1.38852
C         45.18807        74.07263         1.42181
C         43.93178        73.39147         1.46057
C         46.85767        34.07916        -1.18939
C         48.05633        36.19186        -0.69327
C         46.85360        35.45928        -0.85583
C         48.04582        37.56545        -0.37124
C         46.78032        38.23570        -0.19025
C         47.97603        40.37969         0.20953
C         46.74540        39.62028         0.11507
C         47.98803        41.76556         0.47288
C         46.70173        42.40527         0.83906
C         47.86378        44.64828         1.05048
C         46.62622        43.86457         1.18186
C         47.81315        46.03827         1.20001
C         46.55393        46.73128         1.36059
C         47.76042        48.90146         1.91017
C         46.51671        48.12443         1.53389
C         47.71710        50.36428         1.45891
C         46.46302        51.04522         1.46594
C         47.62390        53.08474         0.56906
C         46.42528        52.42861         1.02930
C         47.55279        54.41238        -0.00638
C         46.31127        54.98591        -0.34511
C         47.44764        57.16066        -0.70000
C         46.17750        56.34775        -0.84531
C         47.41299        58.46550        -1.39775
C         46.15177        59.18402        -1.52439
C         47.45265        61.35528        -1.26256
C         46.16133        60.63563        -1.19425
C         47.50113        62.82157        -0.89572
C         46.26626        63.42561        -0.36393
C         47.56184        65.51976         0.03365
C         46.33533        64.80538         0.10108
C         47.55697        66.91464         0.30186
C         46.37621        67.60574         0.63499
C         47.60890        69.83178         0.82255
C         46.32910        69.12157         0.46839
C         47.63303        71.21406         1.06165
C         46.40472        71.95196         1.15663
C         47.66619        74.05461         1.39423
C         46.41606        73.37585         1.32081
C         49.24403        38.30431        -0.21251
C         50.42427        40.41673         0.28976
C         49.22996        39.68887         0.06966
C         50.45420        41.81071         0.48896
C         49.18574        42.53404         0.50628
C         50.17627        44.81913         0.44173
C         49.07769        43.96846         0.69089
C         50.28309        46.15076         0.90350
C         49.03330        46.82470         1.20140
C         50.28335        48.90040         1.57646
C         49.01403        48.17683         1.47480
C         50.21119        50.42237         1.47770
C         48.90286        51.06268         1.18719
C         50.11171        53.04388         0.29843
C         48.89055        52.41336         0.70067
C         50.11281        54.49871        -0.07356
C         48.77389        55.09627        -0.42841
C         49.85962        56.92655        -1.76928
C         48.72170        56.36413        -0.94780
C         49.89683        58.44597        -1.99359
C         48.65307        59.19751        -1.68764
C         49.99420        61.33039        -1.13233
C         48.71438        60.55276        -0.99447
C         50.03178        62.70211        -0.76706
C         48.80018        63.44792        -0.54083
C         50.07746        65.46828         0.09143
C         48.79927        64.79116        -0.20893
C         50.11014        66.95944         0.00908
C         48.81157        67.69166         0.17378
C         50.17072        69.79205         0.89030
C         48.83899        69.05099         0.80371
C         50.10677        71.26352         0.92753
C         48.89007        71.93076         1.12978
C         50.14392        74.04317         1.41237
C         48.89947        73.36684         1.30489
C         51.72302        42.38678         0.86225
C         52.94365        44.62301         1.21747
C         52.02447        43.73615         0.64601
C         52.81640        46.05566         1.11434
C         51.55264        46.78366         1.05040
C         52.75424        48.92332         1.25773
C         51.56249        48.20019         1.30461
C         52.78216        50.39986         1.18444
C         51.47101        51.16555         1.17969
C         52.57499        53.01319        -0.09305
C         51.38443        52.43051         0.42317
C         52.46576        54.24214        -0.85096
C         51.23625        54.84900        -1.01585
C         52.36414        56.57900        -2.41678
C         51.09272        56.02371        -1.90759
C         52.31270        58.74206        -2.41734
C         51.15388        59.25345        -1.86819
C         52.43610        61.33037        -1.51246
C         51.18895        60.62901        -1.44413
C         52.47955        62.72130        -1.13826
C         51.29318        63.35273        -0.67130
C         52.65527        65.45119        -0.21609
C         51.39039        64.70727        -0.11222
C         52.69498        66.87988         0.18982
C         51.40004        67.66408         0.30864
C         52.37558        69.98157        -0.12073
C         51.34851        69.15756         0.26079
C         52.52399        71.30066         0.48289
C         51.32919        71.98394         0.85025
C         52.65636        73.96589         1.35778
C         51.37380        73.36828         1.21993
C         53.99913        46.80619         1.22792
C         55.19816        48.93204         0.92760
C         54.00366        48.21831         1.13733
C         55.17830        50.30088         0.53977
C         53.94998        51.02521         0.53987
C         55.04227        52.88126        -0.58606
C         53.85730        52.32414        -0.02186
C         54.98790        54.07479        -1.45708
C         53.66929        54.76710        -1.56212
C         54.83928        56.99065        -2.14169
C         53.62026        56.17901        -2.04262
C         54.79555        58.44731        -2.21964
C         53.60822        59.25801        -2.16055
C         54.90313        61.33736        -1.87901
C         53.65222        60.63805        -1.81921
C         54.87064        62.81478        -1.84096
C         53.69194        63.45671        -1.21960
C         55.08540        65.46009        -0.71789
C         53.79303        64.80181        -0.73413
C         55.13014        66.78062        -0.27028
C         53.98343        67.54690        -0.05300
C         55.10828        69.60686         0.46994
C         54.34831        68.91522        -0.61206
C         54.97048        70.95745         1.00464
C         53.77576        71.82388         0.86532
C         55.11534        73.86373         1.43435
C         53.84436        73.20966         1.26369
C         56.36066        50.94886         0.11801
C         57.50011        52.89489        -0.86931
C         56.29259        52.23139        -0.43998
C         57.56525        54.16544        -1.38405
C         56.26780        54.81458        -1.92486
C         57.21989        57.15567        -1.73999
C         56.07687        56.34400        -1.83582
C         57.22281        58.51484        -2.08775
C         56.00687        59.20303        -2.20285
C         57.39513        61.33162        -2.25093
C         56.06937        60.63999        -2.16334
C         57.44294        62.83218        -2.17051
C         56.13834        63.59597        -2.08016
C         57.48532        65.75700        -1.58684
C         56.10910        65.10787        -1.77788
C         57.53644        67.12091        -1.00820
C         56.23974        67.75527        -0.59376
C         57.65093        69.62177         0.50795
C         56.35600        68.84849         0.47514
C         57.54354        71.09573         0.62569
C         56.33914        71.73695         1.21192
C         57.59793        73.89501         1.32535
C         56.33861        73.21544         1.27655
C         58.92364        54.63305        -1.65133
C         60.60709        56.59870        -1.50598
C         59.32442        55.94309        -1.49431
C         60.55643        58.00037        -1.74314
C         58.50048        59.19089        -2.16274
C         60.00164        61.19732        -2.02038
C         58.65192        60.53833        -2.03423
C         59.99687        62.71102        -1.81196
C         58.67260        63.41889        -1.48591
C         60.00990        65.57405        -1.13473
C         58.76939        64.93778        -1.62344
C         59.99520        66.91005        -0.77547
C         58.76476        67.67742        -0.65235
C         60.01242        69.77900        -0.09869
C         58.83474        69.04815        -0.14308
C         60.07460        71.16525         0.30258
C         58.81354        71.90880         0.49052
C         60.09439        73.85364         1.31417
C         58.82961        73.26724         1.07337
C         61.41714        59.04063        -1.38063
C         62.37473        61.21523        -1.29686
C         61.24586        60.45407        -1.59407
C         62.42259        62.64186        -1.20825
C         61.21893        63.40713        -1.32589
C         62.48570        65.44331        -0.78058
C         61.23368        64.78754        -1.06228
C         62.55495        66.84497        -0.59086
C         61.26647        67.53875        -0.35921
C         62.54196        69.73318        -0.30302
C         61.27022        69.01039        -0.11071
C         62.54953        71.21465         0.06316
C         61.27698        71.83577         0.49311
C         62.57304        73.77116         1.30032
C         61.30601        73.17798         1.03284
C         63.63233        63.27951        -0.88195
C         64.88853        65.33115        -0.29356
C         63.69141        64.67524        -0.69095
C         64.97237        66.71523        -0.14008
C         63.78970        67.52081        -0.38966
C         64.93365        69.77896        -0.31974
C         63.79464        68.97188        -0.29583
C         65.00715        71.09371         0.24569
C         63.82793        71.79495         0.48169
C         65.04176        73.68339         1.44991
C         63.79532        73.10927         1.08963
C         66.16165        67.25921         0.51845
C         67.47001        69.35034         1.15379
C         66.61368        68.54051         0.33451
C         67.41242        70.74076         1.22999
C         66.37562        71.67539         0.58351
C         67.39851        73.53098         1.95426
C         66.24911        72.98512         1.34872
C         68.47443        71.36575         1.95505
C         68.51712        72.72756         2.21712
O         32.19302        63.13528        -1.63274
O         35.08810        60.83686         1.72327
O         29.50046        73.14635        -1.75188
O         46.68234        42.83492         2.24739
O         44.18208        68.22279         2.66496
O         34.37231        52.71964         2.51005
O         44.03218        52.06310         2.68704
O         38.30955        62.48326         2.03445
O         35.69603        50.23782         0.28252
O         44.68047        42.30404        -0.67425
O         60.18659        62.13599        -3.13190
O         54.10228        53.82358        -2.62693
O         45.46480        58.78780        -2.82614
O         53.26829        69.62534        -1.15060
O         37.51843        70.23272         2.82759
O         36.23740        73.04437         2.11028
O         34.33295        58.68276        -1.65637
O         40.46266        63.28332        -1.02938
O         49.07374        59.01793        -3.08079
O         67.03495        72.03645        -0.73291
O         50.02995        56.04351        -2.92513
O         49.61543        69.10473         2.05357
O         41.85293        53.53699        -1.32430
O         57.88721        71.74367        -0.64214
O         32.81566        66.35532        -1.49980
O         41.88914        71.71415         0.11314
O         43.29283        62.44578         1.39690
O         33.83318        55.94743         1.86428
O         61.27249        68.08388         1.03462
O         55.43547        68.58693        -1.58300
O         66.12211        69.22932        -0.79516
O         50.75266        64.87746         1.22714
O         30.81877        65.07249         1.24225
O         52.05928        67.17886         1.51403
O         52.21002        57.65352        -3.28557
O         41.44042        42.97259         2.33042
O         57.19963        68.78901         1.63706
O         40.48021        45.31550        -0.46114
O         62.49208        70.75459        -1.34228
O         50.28817        49.76834         2.78293
O         52.34772        51.19882         2.34947
O         40.23129        49.34327         3.10401
O         43.34452        64.79649         2.14061
O         38.03585        53.75059        -0.80950
O         38.06444        66.89696        -0.82531
O         57.59786        62.19626        -3.45078
O         58.34158        56.80744        -1.01017
O         47.49381        62.36830        -2.30277
O         49.44405        67.54616        -1.14912
O         55.24716        63.32582        -3.19098
O         59.49163        58.31606        -2.56829
O         37.47578        49.39093         2.87270
O         42.33464        57.57034        -2.41707
O         43.08760        40.56393         2.02712
O         28.28416        66.32364        -2.33915
O         39.83404        57.58336        -2.14934
O         58.25811        65.55792        -2.83111
O         51.20472        44.33880        -0.34836
O         38.03781        65.12078         2.34972
O         55.66863        71.10490         2.30128
O         48.63247        60.16116         0.42826
H         48.86505        60.93729         0.98291
O         29.87267        58.57211         1.89591
H         30.51717        57.95317         2.30580
O         46.14490        69.26855        -1.00020
H         46.10994        70.22899        -1.19957
O         47.77315        48.91999         3.37323
H         48.64183        49.31423         3.63448
O         55.57330        65.76362        -2.95445
H         56.17304        65.55561        -3.70392
O         56.40812        54.58427        -3.34841
H         55.51031        54.34279        -3.68593
O         44.09431        55.34483        -2.79706
H         44.02863        56.08805        -3.43560
O         47.48796        57.52897         0.74022
H         48.07354        58.31909         0.83927
O         66.15069        72.95127        -1.41343
H         65.63167        72.36098        -2.01326
O         29.83463        67.40696         1.55269
H         30.26764        66.69587         2.08331
O         25.61322        65.58053        -3.25844
H         26.53341        65.85716        -3.47552
O         35.79556        70.07049        -1.20152
H         35.98956        69.17759        -1.56269
O         41.29712        73.36170         3.37895
H         41.17906        74.27901         3.70268
O         37.73266        53.67907         2.86095
H         37.54627        53.01045         3.55253
O         58.43286        63.18018        -0.06317
H         59.20333        63.51694         0.44322
O         40.08713        69.57265         3.39982
H         39.16431        69.82285         3.65753
O         41.24701        65.63970        -0.77388
H         40.48671        65.27422        -1.28183
O         31.35730        60.82286         1.71769
H         30.68020        60.19453         2.08033
O         40.67199        65.02370         2.74820
H         39.89225        65.11009         3.34080
O         50.45003        55.22413         1.18787
H         51.10292        54.67662         1.67607
H         23.16663        75.47246        -1.25845
H         25.58293        75.40136        -0.77166
H         27.75201        75.30904         0.14950
H         30.54086        75.28409         0.61842
H         32.92167        75.30550         0.17870
H         35.35981        75.18738        -0.31562
H         38.10309        75.00253         0.08385
H         40.23549        75.13729         1.05863
H         42.75106        75.19016         1.66792
H         45.20050        75.16887         1.51229
H         47.67081        75.14620         1.53349
H         50.14836        75.11880         1.64410
H         52.72631        75.03629         1.60235
H         55.10876        74.95178         1.59923
H         57.59355        74.95792         1.61066
H         60.14013        74.86612         1.74207
H         62.59450        74.78634         1.72425
H         65.04800        74.67501         1.92890
H         67.35994        74.55734         2.34810
H         22.18427        69.62819        -1.96229
H         20.99983        71.79985        -1.97853
H         21.03346        74.27539        -1.73147
H         24.47232        65.29562        -1.55294
H         23.36314        67.46531        -1.91002
H         26.75714        60.86733        -0.81128
H         25.58848        63.05412        -1.19670
H         29.16021        56.40788         0.21264
H         27.91654        58.69729        -0.30007
H         31.72384        52.15283         0.58618
H         30.44154        54.27413         0.33346
H         34.29054        47.55781         1.55803
H         32.94924        50.20198         2.21611
H         36.95763        43.81763         0.78728
H         35.67915        45.79218         1.05811
H         39.58177        39.64691        -0.02593
H         38.24209        41.70106         0.45740
H         42.19150        35.51366        -0.81678
H         40.88878        37.58146        -0.44862
H         45.67995        32.31914        -1.60618
H         43.49347        33.46579        -1.30961
H         47.81739        33.55991        -1.32344
H         49.02006        35.67838        -0.83001
H         50.21034        37.78815        -0.31579
H         51.37828        39.86866         0.28346
H         52.46283        41.72841         1.34108
H         53.82127        44.22961         1.75129
H         54.96309        46.27737         1.25969
H         56.15469        48.38919         0.91402
H         57.32390        50.42259         0.17382
H         58.44452        52.36793        -0.66025
H         59.68636        53.86093        -1.83617
H         61.53996        56.06663        -1.27318
H         62.34337        58.75487        -0.85774
H         63.30285        60.67903        -1.04489
H         64.54738        62.67858        -0.77608
H         65.77759        64.71682        -0.08839
H         66.63781        66.62658         1.28306
H         68.23139        68.84338         1.76922
H         69.29144        70.72494         2.31871
H         69.38499        73.15499         2.73770
