         344
 CSIRO Nanostructure Databank - Neutral Graphene Oxide Data Set
C          1.80847         3.17297         2.43263
C          1.64424         4.34091         1.69209
C          2.94658         2.38513         2.27244
C          2.61424         4.73847         0.72994
C          1.14468         6.58207        -0.08517
C          1.04751         7.87057        -0.49398
C          2.40390         5.89000        -0.10027
C          2.29423         8.64505        -0.81933
C          1.36922        10.50464         0.64947
C          1.51458        11.73653         1.30004
C          2.45076         9.89439         0.01992
C          2.71756        12.45545         1.22649
C          1.99348        14.22426         2.84495
C          2.13712        15.51644         3.41479
C          2.85069        13.75799         1.86360
C          3.20484        16.34825         3.08992
C          3.34253        17.67576         3.63377
C          3.96203         2.77715         1.36570
C          3.78416         3.94760         0.58481
C          5.17111         2.01949         1.25639
C          4.85222         4.35136        -0.35156
C          3.39070         6.36350        -1.15194
C          3.54292         7.79948        -0.77812
C          4.71272         5.59347        -1.16989
C          4.81185         8.44035        -0.77100
C          3.72627        10.52802         0.04627
C          3.82822        11.86424         0.54031
C          4.89043         9.85164        -0.43272
C          5.05277        12.57643         0.33797
C          3.94672        14.63646         1.41273
C          4.20635        15.89526         2.15094
C          5.06849        14.02673         0.59644
C          5.35015        16.62978         1.92289
C          4.41275        18.45727         3.31750
C          5.50702        17.94893         2.51444
C          6.27048         2.47767         0.52732
C          6.18893         3.73548        -0.19966
C          7.50868         1.78751         0.57804
C          7.29619         4.30516        -0.79389
C          5.96277         6.33266        -1.67783
C          5.96070         7.78352        -1.25643
C          7.28985         5.66444        -1.28805
C          7.15269         8.56007        -1.55804
C          6.12450        10.56183        -0.56522
C          6.18318        11.95617        -0.19418
C          7.23973         9.95242        -1.16280
C          7.42364        12.69789        -0.40188
C          6.36606        14.72194         0.56248
C          6.32607        16.21375         0.84597
C          7.47030        14.08380         0.07517
C          7.69770        16.81269         1.01040
C          6.65232        18.69174         2.32817
C          7.91973        18.03084         1.87717
C          8.64786         2.28396        -0.06663
C          8.54325         3.48246        -0.98561
C          9.87339         1.62411         0.01045
C          9.81169         4.29449        -1.00971
C          8.49363         6.35178        -1.42091
C          8.52570         7.79891        -1.71375
C          9.78168         5.68526        -1.24142
C          9.76863         8.58214        -1.48637
C          8.43905        10.73722        -1.63009
C          8.50194        12.12764        -1.04276
C          9.75786         9.97443        -1.46712
C          9.70992        12.92738        -1.47463
C          8.81705        14.73885         0.19132
C          8.75658        16.23154         0.40044
C          9.86817        14.24555        -0.75912
C          9.93799        17.05246         0.05652
C          9.03134        18.92132         1.40314
C         10.08545        18.39701         0.66931
C         11.05492         2.17310        -0.57945
C         11.03543         3.57509        -1.00778
C         12.23285         1.44865        -0.57640
C         12.23603         4.24432        -1.29380
C         11.00177         6.40636        -1.38403
C         11.01940         7.85266        -1.46697
C         12.24837         5.67858        -1.42362
C         12.22501         8.56119        -1.57380
C         10.99693        10.72087        -1.45960
C         11.00531        12.12817        -1.45737
C         12.25496         9.99608        -1.54927
C         12.22904        12.86306        -1.56147
C         11.04291        14.93341        -0.90501
C         11.09871        16.39422        -0.62338
C         12.21406        14.27825        -1.43809
C         12.38207        17.11308        -0.63837
C         11.28831        19.09790         0.40800
C         12.41729        18.47820        -0.20359
C         13.43441         1.96648        -1.22463
C         13.44598         3.44599        -1.56284
C         14.73195         1.19355        -1.06632
C         14.76773         4.14338        -1.65608
C         13.46146         6.36308        -1.58185
C         13.48670         7.81755        -1.92902
C         14.74869         5.65080        -1.68403
C         14.76668         8.51732        -1.51532
C         13.47559        10.70421        -1.59488
C         13.49004        12.13572        -1.59122
C         14.80446         9.99950        -1.82790
C         14.70838        12.83576        -1.48021
C         13.42374        15.06598        -1.62674
C         13.52610        16.48038        -1.15825
C         14.76375        14.26979        -1.67194
C         14.75069        17.17910        -1.19636
C         13.63179        19.18782        -0.33942
C         14.79593        18.55005        -0.80572
C         15.97503         2.05558        -0.92953
C         15.97551         3.45581        -1.15939
C         17.15928         1.39682        -0.61831
C         17.16084         4.21179        -0.93369
C         15.97125         6.37246        -1.26397
C         15.92573         7.83499        -1.27750
C         17.11560         5.67502        -0.94815
C         17.25347         8.57150        -1.38936
C         15.98637        10.69433        -1.18307
C         15.91602        12.16769        -0.87779
C         17.16051        10.02873        -1.00892
C         17.23338        12.85385        -1.14245
C         15.99752        15.02314        -1.19749
C         16.01317        16.49465        -1.67446
C         17.27612        14.27599        -1.64221
C         17.28307        17.18037        -1.22376
C         16.04061        19.25814        -0.83258
C         17.26129        18.58809        -0.97566
C         18.38792         2.10227        -0.50803
C         18.35722         3.52107        -0.62868
C         19.61188         1.41561        -0.28447
C         19.63195         4.24909        -0.52753
C         18.25129         6.42875        -0.29052
C         18.39835         7.87452        -0.69997
C         19.58074         5.73494        -0.40739
C         19.56372         8.55306        -0.42012
C         18.40652        10.72671        -0.68760
C         18.41357        12.18181        -0.85026
C         19.57411        10.01061        -0.46983
C         19.65155        12.90144        -0.81974
C         18.51702        15.03354        -1.21699
C         18.48896        16.45737        -1.11644
C         19.69826        14.31814        -0.93650
C         19.71144        17.15812        -0.77392
C         18.50262        19.28984        -0.80597
C         19.70150        18.60983        -0.71017
C         20.84280         2.09813        -0.09489
C         20.85610         3.53023        -0.12452
C         22.05428         1.41673         0.17476
C         22.01132         4.23836         0.21357
C         20.75899         6.47785         0.10169
C         20.78286         7.83980         0.00010
C         21.94005         5.68751         0.51508
C         22.15139         8.51450        -0.03748
C         20.81784        10.72440        -0.11906
C         20.85316        12.21073        -0.32925
C         22.11467        10.02080         0.01992
C         22.18312        12.84906        -0.63953
C         20.92816        15.03244        -0.62443
C         20.89005        16.45601        -0.53075
C         22.14179        14.33911        -0.42296
C         22.09651        17.18828         0.01004
C         20.95674        19.31336        -0.60484
C         22.14279        18.64530        -0.39088
C         23.24890         2.12194         0.41389
C         23.22847         3.55258         0.47795
C         24.48767         1.43866         0.64173
C         24.44969         4.28088         0.69765
C         23.18011         6.41286         0.94294
C         23.13679         7.94229         1.01936
C         24.46632         5.70048         0.78812
C         24.49570         8.58736         0.82085
C         23.27383        10.73680         0.23905
C         23.34095        12.16095         0.03840
C         24.47633        10.09302         0.91447
C         24.53818        12.86560         0.18577
C         23.37420        15.01692        -0.25162
C         23.39781        16.46455        -0.23607
C         24.58202        14.28882        -0.06251
C         24.58340        17.15069        -0.31331
C         23.40645        19.31033        -0.39966
C         24.60604        18.60403        -0.33773
C         25.67816         2.13077         0.78573
C         25.68684         3.57951         0.73462
C         26.91859         1.44323         1.07284
C         26.90422         4.29906         0.75466
C         25.67307         6.41508         0.73378
C         25.65331         7.88110         0.70609
C         26.91273         5.70664         0.70660
C         26.95827         8.56717         0.32821
C         25.78230        10.76310         0.58497
C         25.78064        12.17173         0.45600
C         26.98227        10.05110         0.61224
C         27.00977        12.88001         0.47512
C         25.82965        14.97812        -0.04140
C         25.86390        16.39295        -0.57119
C         27.02255        14.31259         0.25258
C         27.10298        17.14817        -0.15809
C         25.86973        19.27846        -0.35083
C         27.07368        18.60027        -0.23318
C         28.11206         2.11040         1.13216
C         28.19842         3.53336         0.62873
C         29.33725         1.44672         1.51229
C         29.39414         4.29172         1.14085
C         28.17538         6.44734         0.80633
C         28.17958         7.81863         0.80169
C         29.41537         5.69468         1.06050
C         29.43409         8.56577         1.21920
C         28.21421        10.75648         0.69977
C         28.21133        12.17117         0.68093
C         29.46123        10.03803         0.86142
C         29.47371        12.92815         0.99401
C         28.28313        15.02716         0.26803
C         28.26987        16.47122         0.11010
C         29.48563        14.35116         0.48456
C         29.52544        17.23207         0.48162
C         28.33167        19.30382        -0.24503
C         29.52345        18.64912        -0.04915
C         30.50174         2.13544         1.66104
C         30.55859         3.57736         1.50425
C         31.75033         4.28541         1.74364
C         30.64997         6.38022         1.18552
C         30.67905         7.82588         0.71865
C         31.80331         5.66259         1.52689
C         31.93193         8.60097         1.04412
C         30.67971        10.70687         0.85671
C         30.72984        12.14411         0.69837
C         31.91325         9.94727         1.04876
C         31.90251        12.84049         0.46987
C         30.75672        15.02033         0.35262
C         30.79199        16.46479         0.17158
C         31.92324        14.25163         0.35263
C         31.93642        17.15663        -0.14049
C         30.78556        19.30759        -0.24904
C         31.94599        18.58289        -0.28627
O         13.23339         2.42483        -2.60839
O          7.77471         8.23685        -2.87165
O          4.48538         4.30958        -1.82647
O         14.13117        14.78099        -2.88072
O         20.65039        11.68617         1.01660
O         19.85786         5.15063        -1.71106
O         22.29348         5.84546         1.96818
O         14.94094         4.86166        -2.93127
O          3.98049        14.77990        -0.06596
O         10.07367        17.11743        -1.41573
O         17.94069         6.44263         1.14477
H         17.12478         6.97058         1.27376
O          8.40766         2.92958        -2.34423
H          9.22141         2.41309        -2.53031
O         15.08361        10.07190        -3.27141
H         14.43422         9.45719        -3.70295
O         17.28974        14.19841        -3.09437
H         17.08051        15.10613        -3.43618
O          5.90074         6.28453        -3.12470
H          5.76995         5.34097        -3.36559
O         16.04289        16.55079        -3.13203
H         15.20193        16.12950        -3.44804
O         22.63093         8.31711         2.31864
H         22.21474         7.50419         2.70169
O         30.57368         7.77511        -0.73334
H         31.32888         7.25307        -1.07519
O          8.45601        17.43467         3.14957
H          9.38281        17.16177         2.97333
O         15.72516        12.29603         0.60520
H         16.49552        11.86189         1.03398
O          9.33887        14.26485         1.51007
H          8.67927        14.51719         2.19284
O         14.88031         0.32056        -2.19404
H         14.58631         0.82838        -2.98299
O         13.53501         7.85739        -3.42749
H         14.03321         7.06081        -3.72036
O          5.80907        16.81832        -0.38701
H          4.97711        16.32962        -0.60594
O         27.01437         8.49804        -1.14236
H         27.22706         7.57297        -1.39013
O         22.72375         8.14055        -1.32495
H         22.13465         8.46903        -2.03666
O         29.50215        17.35479         1.95034
H         28.70265        17.87261         2.18451
O         24.29500        10.41681         2.33364
H         23.53284         9.87500         2.65544
O          2.79056         6.25867        -2.47637
H          2.97517         5.34529        -2.79216
O         17.55673         8.55543        -2.82180
H         16.85651         9.10363        -3.25754
O         22.36374        12.63976        -2.08407
H         23.17932        13.11291        -2.35482
O         15.96075        15.06925         0.24269
H         15.87156        14.14224         0.58505
O         25.94538        16.25773        -2.03977
H         26.79764        15.81716        -2.24404
O          2.16180         9.08217        -2.21108
H          2.26470         8.26916        -2.75970
O          9.47806        13.29675        -2.87381
H          9.10446        12.50110        -3.32746
O         29.47974         8.51095         2.67596
H         28.77100         9.09079         3.02603
O          8.27119        10.89564        -3.08855
H          8.13247         9.98330        -3.45094
O         28.43855         3.40698        -0.82464
H         27.71464         2.85417        -1.18935
O         29.46924        13.07400         2.47211
H         30.22028        13.66200         2.70361
O         21.91529        17.18911         1.47386
H         22.67578        17.67294         1.86026
H          1.03496         2.87562         3.15448
H          0.74407         4.94992         1.84646
H          3.07658         1.46827         2.86419
H          0.24194         6.04402         0.24174
H          0.06983         8.35357        -0.62559
H          0.38210        10.02264         0.64297
H          0.64518        12.17343         1.80988
H          1.16202        13.59460         3.19236
H          1.38793        15.86080         4.14190
H          2.55236        18.05464         4.29858
H          5.26474         1.09130         1.83882
H          4.49904        19.47341         3.72986
H          7.58385         0.86737         1.17684
H          6.71992        19.70060         2.76428
H          9.94436         0.66312         0.54167
H          9.11962        19.92937         1.83793
H         12.26693         0.45791        -0.10001
H         11.39404        20.13025         0.77364
H         14.65693         0.54506        -0.15262
H         13.68052        20.24164        -0.02849
H         17.15120         0.30443        -0.49471
H         16.04042        20.33335        -0.59962
H         19.59832         0.31704        -0.23304
H         18.48326        20.38652        -0.72129
H         22.06356         0.31686         0.18658
H         20.95960        20.40364        -0.75918
H         24.48906         0.33902         0.67748
H         23.42934        20.40402        -0.52425
H         26.87545         0.36832         1.30799
H         25.87600        20.37734        -0.41188
H         29.30248         0.36438         1.70874
H         28.32945        20.37447        -0.50255
H         31.42175         1.60990         1.95678
H         32.65675         3.74057         2.04435
H         32.76668         6.17834         1.64179
H         32.88904         8.07301         1.16701
H         32.84735        10.50072         1.22303
H         32.85439        12.30344         0.35252
H         32.89874        14.73843         0.21858
H         32.88206        16.62300        -0.31262
H         30.79294        20.38845        -0.45385
H         32.90304        19.08331        -0.48975
