         349
 CSIRO Nanostructure Databank - Neutral Graphene Oxide Data Set
C          1.22473         3.38208         0.92782
C          0.05018         4.06005         0.84658
C          1.13431         6.26817         0.84958
C          0.00330         5.49780         0.83352
C          1.09581         7.75343         0.77522
C         -0.14720         8.46610         0.46100
C          1.06920        10.53002        -0.07658
C         -0.14559         9.79520         0.17230
C          0.97519        11.93509        -0.55556
C         -0.15946        12.77963        -0.14265
C          1.08310        14.88505        -0.50534
C         -0.08198        14.14595        -0.14426
C          1.12740        16.29723        -0.39565
C         -0.10930        17.05383        -0.30016
C          1.08445        19.17395         0.04273
C         -0.14972        18.39890        -0.15705
C          1.06546        20.65478        -0.21251
C         -0.09490        21.44492         0.21404
C          1.18144        23.53507        -0.00748
C         -0.04787        22.80104         0.20117
C          1.17795        24.97364         0.00535
C         -0.02222        25.72763        -0.11979
C          1.20994        27.82028         0.03283
C         -0.00710        27.10745        -0.14975
C          1.24043        29.26803         0.11528
C          3.76341         3.42972         0.85464
C          2.48923         4.09624         1.12956
C          3.68406         6.32053         0.58834
C          2.45578         5.63414         1.05806
C          3.64574         7.69865         0.27866
C          2.40483         8.50267         0.49548
C          3.51514        10.57824        -0.40695
C          2.29908         9.87943        -0.05087
C          3.50971        11.91549        -0.75873
C          2.25192        12.65670        -0.95300
C          3.58477        14.84488        -0.64353
C          2.29234        14.19274        -1.10481
C          3.61969        16.28484        -0.43043
C          2.37317        16.99073        -0.42327
C          3.62499        19.20758        -0.49825
C          2.38991        18.44001        -0.15028
C          3.67114        20.64723        -0.23485
C          2.40413        21.39270        -0.30544
C          3.66066        23.53155        -0.04548
C          2.40415        22.84403        -0.07866
C          3.65863        24.94196         0.04004
C          2.42397        25.66548         0.08356
C          3.61553        27.81687         0.58227
C          2.40098        27.09568         0.16916
C          3.65637        29.29209         0.54108
C          2.39425        29.96383         0.33394
C          6.18559         3.46955         0.60385
C          4.92485         4.14477         0.63414
C          6.05822         6.25494        -0.04142
C          4.89099         5.59502         0.41718
C          6.03038         7.62999        -0.31324
C          4.81716         8.34717        -0.14458
C          6.05939        10.51520        -0.54526
C          4.79320         9.82752        -0.23046
C          6.03857        11.93341        -0.96039
C          4.76203        12.68699        -0.98307
C          5.99990        14.74888        -0.21667
C          4.76992        14.14641        -0.67870
C          6.07082        16.19610         0.28702
C          4.84371        16.95305        -0.20086
C          6.18005        19.14223        -0.12563
C          4.94274        18.39208        -0.44124
C          6.13946        20.57448        -0.05969
C          4.90233        21.32385        -0.11617
C          6.13800        23.46819         0.02866
C          4.90090        22.77426        -0.06022
C          6.26608        24.97745        -0.21416
C          4.90305        25.75738        -0.24952
C          6.14064        27.87195         0.57448
C          4.91657        27.06395         0.54484
C          6.12394        29.26060         0.69288
C          4.85974        29.96215         0.63012
C          8.61085         3.47124         0.37063
C          7.37144         4.11548         0.25481
C          8.60429         6.22909        -0.39828
C          7.28973         5.46223        -0.43005
C          8.59715         7.64603        -0.67242
C          7.28019         8.29744        -0.79645
C          8.58195        10.54516        -0.79418
C          7.31149         9.79334        -0.90810
C          8.52127        11.96262        -0.57647
C          7.28082        12.61260        -0.55130
C          8.93940        14.92784         0.00533
C          7.06461        13.89702         0.01081
C          8.64770        16.33462        -0.14018
C          7.40435        16.96447         0.00756
C          8.62489        19.18062         0.46816
C          7.37286        18.41347         0.03911
C          8.61099        20.64570         0.12364
C          7.38096        21.30822         0.06693
C          8.60738        23.47201         0.30804
C          7.32753        22.74817         0.11906
C          8.62356        24.90869         0.67096
C          7.30973        25.63018         0.73842
C          8.65710        27.84016         0.78536
C          7.37267        27.11948         0.78731
C          8.61043        29.28794         0.77629
C          7.38221        29.95667         0.76615
C         11.05093         3.46106         0.13366
C          9.83018         4.12736         0.04173
C         11.04241         6.13549        -0.92405
C          9.79141         5.53274        -0.32739
C         11.06367         7.66987        -0.94771
C          9.77424         8.39797        -0.81441
C         11.06708        10.59490        -0.67652
C          9.80226         9.84720        -0.81061
C         11.07860        12.00444        -0.67343
C          9.78517        12.72196        -0.97038
C         11.08436        14.89034        -1.28066
C          9.88210        14.20546        -0.67186
C         11.07989        16.40331        -1.00221
C          9.91169        17.06974        -0.30556
C         11.08479        19.27349        -0.57465
C          9.93824        18.50199         0.05489
C         11.16937        20.70577        -0.14580
C          9.90968        21.41177         0.31662
C         11.09188        23.61566        -0.22455
C          9.79320        22.80786        -0.35423
C         11.06888        24.98197         0.28753
C          9.80446        25.73394         0.14544
C         11.12917        27.84590         0.75860
C          9.85099        27.16115         0.65560
C         11.08040        29.30322         0.52692
C          9.85365        29.96145         0.55866
C         13.50537         3.41305         0.12236
C         12.31181         4.13448        -0.06190
C         13.61622         6.23419        -0.61842
C         12.31076         5.51433        -0.40612
C         13.56569         7.72087        -0.34336
C         12.33876         8.43934        -0.70805
C         13.51513        10.60022        -0.32584
C         12.30528         9.90361        -0.51116
C         13.52962        12.03835        -0.38799
C         12.30311        12.75667        -0.60462
C         13.58946        14.88723        -0.73518
C         12.35645        14.17901        -0.78940
C         13.65051        16.32636        -0.85945
C         12.38892        17.10910        -0.89212
C         13.62350        19.26896        -0.90866
C         12.42419        18.52729        -0.31075
C         13.63422        20.72297        -0.47013
C         12.34818        21.38006        -0.28177
C         13.60040        23.50316         0.31033
C         12.37380        22.85803        -0.17962
C         13.54614        24.84153         0.90547
C         12.18731        25.55205         1.10874
C         13.58039        27.64268         1.20976
C         12.28002        27.06848         0.95989
C         13.51454        29.67348         0.35561
C         12.22673        30.01517        -0.01635
C         16.04523         3.41055         0.46522
C         14.83488         4.05609        -0.16569
C         15.98183         6.30876         0.27563
C         14.69364         5.54622         0.22312
C         15.97349         7.68020         0.16146
C         14.72744         8.41180        -0.07959
C         15.96501        10.53583         0.08468
C         14.75410         9.86678        -0.09692
C         16.06454        11.98942        -0.31119
C         14.75863        12.75119        -0.33227
C         16.08925        14.84809        -0.41085
C         14.81013        14.14595        -0.49964
C         16.16294        16.29978        -0.85552
C         14.85830        17.06145        -0.71678
C         16.02025        19.16925        -0.02543
C         14.86486        18.46184        -0.58118
C         16.05663        20.69713         0.00096
C         14.79590        21.43307        -0.27294
C         16.05634        23.56528         0.14767
C         14.80527        22.84961         0.09683
C         16.07900        24.92605         0.41080
C         14.87081        25.60031         0.91343
C         16.07181        27.94345         1.01260
C         14.80821        27.07549         0.98125
C         15.96486        29.19928         0.04458
C         14.75351        29.83475        -0.31159
C         18.43128         3.45304         1.02803
C         17.15997         4.11585         0.78111
C         18.44233         6.29891         0.67751
C         17.13243         5.61740         0.96218
C         18.45358         7.69303         0.47914
C         17.19827         8.42812         0.35763
C         18.46837        10.49255         0.80143
C         17.18152         9.81646         0.34330
C         18.45809        12.01813         0.69694
C         17.18344        12.76151         0.36281
C         18.47938        14.94182         0.30412
C         17.23006        14.20491         0.00859
C         18.57026        16.36701        -0.06734
C         17.36550        17.03298        -0.32215
C         18.60757        19.24301         0.03087
C         17.32212        18.45262         0.01942
C         18.55446        20.72870        -0.10477
C         17.33688        21.40242        -0.10050
C         18.57526        23.59700        -0.04449
C         17.29118        22.88466        -0.39899
C         18.55983        25.00125         0.17947
C         17.30179        25.70045         0.37432
C         18.55426        27.70915         0.77460
C         17.30110        27.07267         0.69891
C         18.43069        29.63991        -0.09498
C         17.10740        29.79434        -0.55373
C         19.60452         4.13624         0.98472
C         20.86572         6.24184         0.50541
C         19.64610         5.56628         0.72702
C         20.88453         7.61353         0.28083
C         19.69225         8.36745         0.29000
C         20.76348        10.55746        -0.20407
C         19.68637         9.82083         0.20162
C         20.78934        11.98891        -0.09808
C         19.74675        12.70663         0.42137
C         21.02705        14.93286         0.26258
C         19.79775        14.18159         0.53634
C         21.01347        16.29551         0.07234
C         19.81452        17.05148        -0.03445
C         21.07127        19.30858        -0.19211
C         19.83119        18.50697        -0.48991
C         21.02029        20.66608        -0.11136
C         19.79633        21.43064        -0.15870
C         21.01549        23.61522        -0.03647
C         19.79587        22.87833        -0.09340
C         21.01515        24.98621         0.07638
C         19.80364        25.70973         0.23158
C         20.91742        27.98336         0.12590
C         19.78932        27.13741         0.40698
C         20.83233        29.26325        -0.41365
C         19.63493        29.94540        -0.74490
O          7.04982        26.20801         2.01548
O         18.08912        18.72805         1.26776
O         15.81035        19.90054         1.22774
O         17.55903        12.52827         1.74684
O          4.29653        18.78567        -1.70851
O          5.46056        12.29721        -2.24440
O          1.87402         8.38339         1.85142
O          1.37492        12.06549        -1.97654
O         10.35113        17.52891         1.07400
O          4.17334        27.15434         1.79270
O         11.63843        17.09338        -2.16500
O         14.34784        24.93667         2.13504
O          6.91153        25.12092        -1.46222
O          7.14539         8.97458        -2.10337
O         19.00760        14.71034         1.64515
O         13.58737        28.99293         1.58930
O          8.06968        14.28642         0.89960
O         18.57600        29.04775         1.18032
O          1.60507        21.01177        -1.51197
O         11.86336         8.10634        -2.11599
O         11.92556        23.48908        -1.46867
O          1.88836        18.78597         1.20277
O          2.56358         4.94279         2.33621
O          5.65625        10.39464         0.86042
O          8.85599        23.92568         1.69365
O         17.17074        23.00876        -1.87189
H         18.02490        22.71835        -2.25817
O         11.79592        25.29626         2.49289
H         12.63047        25.18854         3.00770
O         12.71658        18.50642         1.08844
H         11.98785        18.03968         1.56077
O         16.51430        11.95151        -1.71738
H         15.81894        11.49681        -2.23931
O         19.68284        18.48674        -1.95018
H         20.46877        18.03903        -2.32780
O         16.23976        28.45054         2.34749
H         15.41430        28.93563         2.57283
O          7.08902         5.16490        -1.85422
H          7.91801         4.76388        -2.19338
O          5.97704        16.14759         1.74262
H          6.71602        15.57888         2.05497
O         10.94132         5.70802        -2.33770
H         11.22028         6.47430        -2.89078
O         18.55943        10.19063         2.22888
H         18.04479        10.88996         2.69441
O         16.85977         5.80121         2.41223
H         17.07555         6.73351         2.63385
O          2.21588        14.46662        -2.53524
H          1.67746        13.74186        -2.93045
O         16.38000        16.23549        -2.31751
H         15.62650        15.73791        -2.70176
O         11.10262        14.73258        -2.72559
H         11.46013        15.58141        -3.09131
O         13.46773        19.28431        -2.35990
H         14.19468        19.81619        -2.74657
O          9.61657        12.60575        -2.42858
H         10.21339        13.26295        -2.86583
O         10.06317        21.59997         1.74658
H          9.63530        20.83263         2.19908
O         10.75781        19.36584        -1.98170
H         11.60283        19.46731        -2.48384
O          8.61275        19.17647         1.94317
H          9.00567        18.31288         2.21682
O          9.53054        25.82462        -1.29036
H          8.55567        25.59533        -1.46511
O          9.48172        22.62153        -1.73530
H         10.29591        22.81471        -2.25524
O         13.94223         6.16027        -2.04902
H         13.27170         6.72184        -2.50935
O          4.70645        26.18113        -1.62086
H          5.52561        25.84087        -2.09662
O         15.06577         3.84928        -1.58874
H         14.52025         4.50534        -2.09036
O         14.19110         5.56221         1.59264
H         14.97321         5.47666         2.19286
H          1.25379         2.28964         0.80314
H         -0.89400         3.51200         0.72019
H         -0.98467         5.96878         0.73521
H         -1.09944         7.91799         0.46873
H         -1.10580        10.29752        -0.01053
H         -1.06868        12.29949         0.24467
H         -0.95251        14.70012         0.23564
H         -1.05661        16.51958        -0.45540
H         -1.10700        18.93370        -0.23513
H         -1.00023        20.92348         0.55555
H         -0.94817        23.36222         0.48685
H         -0.98241        25.20587        -0.23058
H         -0.94607        27.66634        -0.27238
H          0.29307        29.80990        -0.02247
H          3.79892         2.32986         0.87937
H          2.37753        31.06362         0.35728
H          6.22273         2.42023         0.93487
H          4.87089        31.06237         0.60834
H          8.64817         2.44199         0.75892
H          7.37437        31.05743         0.75079
H         11.06293         2.39831         0.41735
H          9.83028        31.04308         0.35650
H         13.45090         2.33097         0.32050
H         12.04879        30.76086        -0.80612
H         16.11023         2.31180         0.39790
H         14.79483        30.56919        -1.13303
H         18.43131         2.35932         1.14947
H         16.93462        30.49837        -1.38465
H         20.56001         3.60433         1.10237
H         21.80849         5.67664         0.52833
H         21.84903         8.12120         0.13967
H         21.66300        10.05842        -0.59170
H         21.71159        12.50259        -0.40308
H         21.98470        14.39636         0.21259
H         21.97702        16.80665        -0.06965
H         22.04970        18.80729        -0.15727
H         21.96943        21.20531         0.01689
H         21.97865        23.09291        -0.10085
H         21.97363        25.52170         0.10158
H         21.91699        27.52235         0.12932
H         21.77196        29.69663        -0.79226
H         19.64689        30.66610        -1.57567
