         294
 CSIRO Nanostructure Databank - Neutral Graphene Oxide Data Set
C          1.35107         1.99427         0.31051
C          1.26075         3.35617         0.41976
C          2.56730         1.33656        -0.06115
C          2.45012         4.13823        -0.08861
C          1.39270         6.39005        -0.37813
C          1.36575         7.79888        -0.41105
C          2.48900         5.65767         0.14284
C          2.35320         8.55684         0.18464
C          1.10076        10.72994        -0.37903
C          1.17966        11.95625        -0.90769
C          2.23352        10.06822         0.36800
C          2.44948        12.76096        -1.00021
C          1.16177        14.97399        -0.77719
C          1.17472        16.41380        -0.55772
C          2.30014        14.24255        -0.66107
C          2.33534        17.13337        -0.59969
C          2.40892        18.55037        -0.29464
C          3.79953         2.01444        -0.02215
C          3.70504         3.43919         0.50128
C          5.04042         1.37212        -0.10974
C          4.91757         4.32039         0.20178
C          3.59272         6.35512         0.63551
C          3.51022         7.85292         0.86178
C          4.88415         5.63956         1.05270
C          4.87886         8.54216         0.42599
C          3.55893        10.77915         0.11858
C          3.61027        12.09652        -0.26332
C          4.78991        10.06329         0.56576
C          4.84400        12.87501        -0.24869
C          3.55416        15.01055        -0.27361
C          3.60856        16.39183        -0.95054
C          4.82109        14.22947        -0.43777
C          4.87799        17.14200        -0.58840
C          3.56919        19.24770        -0.30280
C          4.86309        18.64283        -0.80244
C          6.27582         2.05356         0.17394
C          6.24536         3.54999         0.16834
C          7.43791         1.38193         0.50067
C          7.50919         4.26745         0.46847
C          6.15317         6.43269         0.78183
C          6.08967         7.88958         1.21897
C          7.42244         5.64697         1.11606
C          7.40743         8.65269         0.96111
C          6.08105        10.81191         0.54813
C          6.14061        12.30683         0.29958
C          7.39716        10.08071         0.52292
C          7.38182        12.83676        -0.39822
C          6.08079        14.98985        -0.76643
C          6.04718        16.48035        -0.47562
C          7.37332        14.28732        -0.43771
C          7.38175        17.19851        -0.63500
C          6.11166        19.29047        -0.24154
C          7.29400        18.64661        -0.17741
C          8.66122         2.06426         1.10417
C          8.82783         3.46571         0.52203
C          9.99564         1.33977         0.93153
C          9.98059         4.22693         1.13974
C          8.67374         6.37718         0.69633
C          8.72458         7.86378         0.99250
C          9.99869         5.65124         0.81013
C          9.78394         8.43817        -0.00224
C          8.43507        10.58571        -0.48519
C          8.53716        12.10618        -0.51626
C          9.80775         9.93425        -0.31360
C          9.79052        12.80547        -0.90376
C          8.54231        14.99857        -0.33927
C          8.46312        16.43185         0.15732
C          9.77730        14.32534        -0.75533
C          9.80818        17.13753         0.20435
C          8.48913        19.29983         0.51378
C          9.83869        18.62306         0.29828
C         11.17747         2.00102         0.95805
C         11.23719         3.47868         1.17680
C         12.52363         1.27876         1.02649
C         12.52318         4.24672         0.81933
C         11.26571         6.47377         0.85922
C         11.16710         7.88894         0.39038
C         12.63488         5.77953         0.83881
C         12.43267         8.64790         0.15137
C         11.09453        10.68643        -0.37156
C         11.19250        12.15127        -0.82169
C         12.30190        10.03825         0.19474
C         12.18958        12.94840         0.04117
C         11.08461        15.06670        -0.69993
C         11.06948        16.46002        -0.19217
C         12.37865        14.35746        -0.46499
C         12.30057        17.27204        -0.53681
C         11.02943        19.26728         0.36579
C         12.36756        18.53283         0.40777
C         13.67974         2.02714         0.36822
C         13.54770         3.46500         0.06773
C         14.80361         1.38563        -0.07479
C         14.69467         4.19498        -0.61295
C         13.56949         6.46192        -0.15236
C         13.64857         7.86399        -0.07708
C         14.69510         5.70945        -0.84400
C         14.89182         8.54406        -0.42010
C         13.37793        10.91028         0.55955
C         13.50435        12.24158         0.25400
C         15.16560         9.78244         0.13430
C         14.81307        12.84815        -0.26270
C         13.65444        15.11020        -0.22295
C         13.59007        16.49023        -0.44216
C         14.88146        14.37162        -0.15503
C         14.79863        17.26964        -0.86562
C         13.57901        19.31613         0.03055
C         14.80611        18.67890        -0.24318
C         15.95758         2.08759        -0.59031
C         15.96814         3.46044        -0.74838
C         17.16268         1.25038        -0.93186
C         17.21005         4.20238        -0.99653
C         16.04781         6.37492        -0.50675
C         16.07683         7.84386        -1.07025
C         17.24248         5.57791        -0.96448
C         17.39082         8.51489        -0.68151
C         16.22897        10.65506        -0.20109
C         16.13168        12.11871         0.09272
C         17.44956         9.96695        -0.42847
C         17.41650        12.89853        -0.04512
C         16.14644        15.03665        -0.32737
C         16.11303        16.48860        -0.71478
C         17.37462        14.36744        -0.29565
C         17.38403        17.27052        -0.62894
C         16.00712        19.34643        -0.11433
C         17.33239        18.81769        -0.61038
C         18.43613         2.04218        -1.13690
C         18.42920         3.41804        -1.21300
C         19.68512         1.31169        -1.17484
C         19.70582         4.14616        -1.40399
C         18.50453         6.37391        -1.30236
C         18.52747         7.77629        -0.72495
C         19.72404         5.56579        -0.90716
C         19.76893         8.36900        -0.08438
C         18.64404        10.65298        -0.32108
C         18.66223        12.15123        -0.56873
C         19.92488         9.88096        -0.37693
C         19.94288        12.83440        -0.08169
C         18.73757        15.05851        -0.49972
C         18.63670        16.56639        -0.23143
C         19.85967        14.28219         0.26384
C         19.71025        17.38151        -0.04479
C         18.45498        19.44009         0.18655
C         19.60400        18.75937         0.43115
C         20.90053         1.91956        -1.21899
C         21.00400         3.37442        -1.38124
C         22.24611         4.08811        -0.98909
C         21.03439         6.21073        -0.53833
C         21.07902         7.67430        -0.38278
C         22.26676         5.39081        -0.65420
C         22.27164         8.41070        -0.22453
C         21.03515        10.48131         0.52775
C         21.12421        12.00325         0.40321
C         22.30391         9.73839         0.17259
C         21.99862        12.63901         1.40162
C         20.87999        14.79730         1.04447
C         21.10703        16.24116         1.17812
C         21.86852        13.95252         1.68870
C         21.37209        17.02574         2.25487
C         20.65567        19.25433         1.32332
C         21.40606        18.47892         2.15431
O         12.27764         3.78380         2.16839
O          9.63390        13.66010        -2.06158
O          5.36166        10.54274         1.82546
O         10.67091        16.46334         1.23024
O         20.06515         5.63183         0.50390
O         21.12059        12.55220        -0.93668
O          6.05954        15.01889        -2.21472
O          9.27829         5.85208        -0.49266
O         16.89204        12.51367         1.27730
O         11.93602        14.73173        -1.82315
O         11.26973         7.54220         1.84151
O         21.01209        16.87163        -0.08000
O          7.04569         4.18465        -0.90408
O          7.71383         9.77564         1.91006
O         10.59603         9.98766        -1.55080
O         20.41696         3.88806        -2.64160
O         13.55798         3.65599        -1.39452
O         16.93750        16.72335        -1.91870
O          7.94967        10.11376        -1.73153
O         14.41246        10.25021         1.21222
O          3.51716         3.23095         1.91455
H          3.80967         4.03535         2.41462
O         19.52368         8.14748         1.34424
H         19.50661         7.16370         1.46453
O         20.39296         9.97713        -1.74416
H         20.15471        10.87274        -2.08746
O         16.15779         6.44783         0.93444
H         15.25873         6.47001         1.34252
O         11.79930        12.12686        -2.12143
H         11.19743        11.62662        -2.71734
O         18.52972         6.52195        -2.74314
H         17.73302         7.05828        -2.98845
O         17.44798        19.27717        -1.98359
H         16.92348        18.64325        -2.52828
O          9.27205         3.21476        -0.83696
H          9.14657         4.05106        -1.34418
O         14.64512        17.55755        -2.28609
H         14.90805        16.75542        -2.78604
O          3.33323         8.04723         2.29151
H          4.15623         7.70327         2.73711
O         13.31065         6.06242         2.10052
H         12.84918         6.84432         2.49469
O         16.04487         7.87046        -2.50731
H         15.27146         7.33320        -2.80869
O         18.63139        12.25287        -2.01908
H         18.80313        13.20399        -2.25632
O         14.70827        12.57890        -1.70206
H         13.77338        12.71466        -1.99650
O          7.49723         5.45700         2.56762
H          7.80848         6.31618         2.94698
O          2.36880         3.94307        -1.52314
H          3.20952         4.29405        -1.90650
O          4.87353        18.82124        -2.24956
H          4.29952        18.11140        -2.62891
O          7.99068        16.40752         1.53542
H          8.67556        15.94529         2.06689
O         19.09367        14.91074        -1.90922
H         19.95436        15.36115        -2.04822
O         14.47408         5.85213        -2.27563
H         13.79079         5.18571        -2.52354
O         12.42372        -0.03621         0.48709
H         12.26054         0.03685        -0.47557
O          1.92179        10.26414         1.78051
H          2.47563         9.62964         2.30165
O         12.09865        17.79716        -1.85999
H         12.15733        17.05262        -2.49685
O          3.48589        15.28312         1.16014
H          3.54918        14.42781         1.63496
O          8.23791        19.22843         1.93413
H          8.04033        18.28112         2.13602
O          4.72581         4.81926        -1.14981
H          5.61565         5.11598        -1.46625
O          9.05359         7.83947         2.40358
H          8.94037         8.75268         2.75709
O         11.55584        13.06244         1.35167
H         12.19221        13.46933         1.97702
O          8.40032         2.19840         2.52402
H          8.35874         1.30330         2.91965
O          4.80132         5.41253         2.49528
H          5.73688         5.36823         2.83372
O          2.83576        12.72473        -2.40978
H          3.55746        13.37803        -2.54424
O          5.12306         8.23811        -0.94963
H          4.68949         8.90044        -1.52672
O          3.66020        16.22399        -2.38954
H          4.54050        15.77106        -2.57729
O         20.78922        10.30623         1.94062
H         20.45776         9.38545         2.09335
O         17.32048         0.25228         0.07979
H         18.03405        -0.36198        -0.18390
O         12.62377        18.08514         1.76069
H         11.85856        17.51255         2.02145
O          9.37332         7.93727        -1.29592
H          8.80931         8.65508        -1.73403
O          5.87485         7.97699         2.65452
H          5.98982         8.93694         2.87274
O          6.27563        12.91994         1.62638
H          5.76899        12.35204         2.25251
O          7.71783        17.13381        -2.03079
H          7.21822        16.35116        -2.40926
H          0.47039         1.36790         0.51909
H          0.32191         3.84547         0.71966
H          2.54436         0.25774        -0.28062
H          0.55057         5.83308        -0.81363
H          0.50610         8.28930        -0.88977
H          0.12283        10.22411        -0.35689
H          0.28797        12.38700        -1.38930
H          0.19710        14.49459        -1.00401
H          0.21606        16.91884        -0.36303
H          1.47393        19.05106         0.00564
H          5.07083         0.28529        -0.29161
H          3.56170        20.31808        -0.04369
H          7.41620         0.27860         0.50533
H          6.03715        20.33240         0.11198
H         10.00253         0.23985         0.85145
H          8.55472        20.38272         0.24212
H         12.76603         1.15914         2.11956
H         11.04425        20.36448         0.47149
H         14.89316         0.29863         0.06609
H         13.54372        20.41803         0.04406
H         16.93155         0.72182        -1.91410
H         16.00520        20.35088         0.33868
H         19.64540         0.21574        -1.07881
H         18.30973        20.45735         0.57978
H         21.82257         1.32955        -1.11001
H         23.18574         3.51418        -1.00092
H         23.22613         5.86871        -0.40725
H         23.23232         7.90537        -0.41048
H         23.27716        10.23417         0.30706
H         22.70102        12.00758         1.96367
H         22.53173        14.42948         2.42517
H         21.55110        16.57192         3.24010
H         20.72655        20.34759         1.43286
H         22.04018        18.99672         2.89225
