         294
 CSIRO Nanostructure Databank - Neutral Graphene Oxide Data Set
C          1.54494         2.39331         2.06794
C          1.44036         3.67456         1.63277
C          2.53331         1.47236         1.54765
C          2.10868         4.07500         0.35508
C          1.15679         6.31536        -0.38956
C          1.24189         7.61281        -0.80296
C          2.29733         5.56586         0.08857
C          2.55720         8.20242        -1.08511
C          1.73136        10.43168        -2.11213
C          1.83398        11.75172        -2.34140
C          2.73154         9.68878        -1.29663
C          2.89009        12.58375        -1.63815
C          1.82479        14.84566        -2.21537
C          1.89907        16.17012        -2.41174
C          3.08006        13.99372        -2.24114
C          3.24063        16.86385        -2.51278
C          3.17229        18.36019        -2.30696
C          3.52963         1.91815         0.72831
C          3.53096         3.34075         0.18478
C          4.79484         1.22652         0.48737
C          4.64330         4.05917         0.95935
C          3.51346         6.20081         0.23485
C          3.74949         7.45970        -0.49265
C          4.62564         5.55246         0.99190
C          5.08305         8.14905        -0.32816
C          4.09214        10.33771        -1.17455
C          4.21725        11.77012        -1.64918
C          5.33675         9.52351        -0.89627
C          5.53953        12.47041        -1.52848
C          4.21603        14.72433        -1.49618
C          4.17221        16.26152        -1.44123
C          5.48775        13.97122        -1.28706
C          5.50555        16.95120        -1.43035
C          4.26864        19.05569        -1.97661
C          5.62056        18.38377        -1.86899
C          5.96859         1.91241         0.58126
C          5.94245         3.32133         1.08984
C          7.27148         1.22665         0.23008
C          7.22456         4.10105         1.29421
C          5.86820         6.31466         1.36100
C          5.82045         7.80789         0.98408
C          7.20625         5.60528         1.54567
C          7.15349         8.49819         0.97658
C          6.70055        10.24099        -0.60886
C          6.74959        11.74762        -0.96969
C          7.08324         9.99690         0.86795
C          7.84552        12.56402        -0.34528
C          6.77193        14.74538        -1.21976
C          6.75865        16.24580        -1.18957
C          7.94058        14.04763        -0.59308
C          7.87511        17.00024        -0.55084
C          6.62263        19.19231        -1.02541
C          7.82640        18.41010        -0.52630
C          8.51376         1.97967         0.65887
C          8.41450         3.49000         0.54046
C          9.67933         1.34069         0.84704
C          9.71277         4.18439         0.90064
C          8.47353         6.45014         1.36766
C          8.33165         7.84553         0.80847
C          9.65168         5.68083         0.69889
C          9.56124         8.32889         1.59029
C          8.41217        10.65536         1.32929
C          8.68374        12.02520         0.78966
C          9.55765         9.82319         2.01401
C          9.92913        12.76858         1.13753
C          9.00231        14.83854         0.08262
C          8.93024        16.32730         0.11224
C          9.95700        14.11723         0.97742
C          9.95229        17.06552         0.73989
C          8.87986        19.12584         0.06787
C          9.94829        18.46870         0.69609
C         10.99969         2.02423         1.09268
C         10.90420         3.53540         0.97208
C         12.10330         1.47817         0.20577
C         12.15899         4.26716         0.75548
C         10.97329         6.29210         1.22683
C         10.90037         7.78928         1.15796
C         12.14606         5.61652         0.60238
C         12.04809         8.50758         0.99798
C         10.91918        10.55402         1.77220
C         10.88966        12.05282         2.08067
C         12.06853         9.93109         1.37282
C         12.26967        12.72548         2.11342
C         11.19883        14.92861         1.17317
C         10.97475        16.38804         1.63543
C         12.29372        14.26343         2.03980
C         12.32327        17.10265         1.59740
C         11.01914        19.22302         1.46469
C         12.33759        18.46828         1.51963
C         13.30352         2.13906         0.07781
C         13.44096         3.48448         0.75300
C         14.43315         1.58122        -0.58849
C         14.62793         4.30718         0.31690
C         13.27654         6.37758        -0.06102
C         13.20498         7.95561         0.14281
C         14.60209         5.67780         0.27165
C         14.57172         8.57169         0.41586
C         13.48374        10.45228         1.70229
C         13.57064        11.95219         1.99977
C         14.54646        10.07467         0.63364
C         14.81278        12.71711         1.81935
C         13.64602        14.86631         1.58057
C         13.65876        16.38949         1.87900
C         14.82470        14.16271         2.24948
C         14.79977        17.06726         1.10386
C         13.59174        19.18573         1.59169
C         14.81482        18.54483         1.48593
C         15.68654         2.21856        -0.61988
C         15.85874         3.54391         0.03692
C         16.75051         1.68258        -1.36612
C         17.09851         4.34347        -0.30567
C         15.81412         6.44466         0.03274
C         15.74134         7.90231         0.19122
C         16.99933         5.81281        -0.28209
C         17.05806         8.59920         0.25089
C         15.93163        10.65249         1.05078
C         15.94889        12.18455         0.99917
C         17.08365        10.11258         0.19865
C         17.32243        12.75348         1.37867
C         16.10572        14.89575         1.89805
C         16.19295        16.27893         1.19088
C         17.23233        14.09926         1.90621
C         17.44699        17.19492         1.58780
C         16.02701        19.26816         1.32446
C         17.24892        18.63214         1.12633
C         17.94639         2.40304        -1.65298
C         18.13720         3.73016        -1.16412
C         18.94210         1.85256        -2.50792
C         19.28239         4.46659        -1.50452
C         18.13645         6.58108        -0.92887
C         18.27216         7.94588        -0.30994
C         19.48243         5.81144        -0.81395
C         19.40838         8.79370        -0.74107
C         18.47735        10.69350         0.62696
C         18.47108        12.22643         0.80930
C         19.52020        10.09322        -0.31007
C         19.86146        12.91424         0.63481
C         19.07735        15.24490         1.27089
C         18.74332        16.61386         1.00682
C         19.88268        14.44698         0.51071
C         19.62325        17.32555         0.19064
C         18.29706        19.36150         0.51245
C         19.43842        18.74480        -0.01010
C         20.03950         2.60335        -2.88856
C         20.22583         3.91948        -2.39873
C         21.34431         4.73617        -2.82643
C         20.73272         6.66316        -1.27637
C         20.37700         8.13894        -1.71072
C         21.53219         5.99284        -2.37424
C         21.61310         8.98102        -1.88886
C         20.58243        10.93847        -0.81363
C         20.58287        12.30702        -0.58452
C         21.63805        10.29286        -1.58256
C         21.32593        13.12933        -1.51631
C         21.01915        15.17545        -0.17912
C         20.77506        16.66601        -0.37910
C         21.46035        14.46954        -1.42616
C         21.70334        17.42297        -1.06288
C         20.42951        19.47317        -0.73852
C         21.53304        18.82654        -1.23940
O          9.02880         7.24006         2.59294
O          4.85224         6.02769         2.37075
O          3.15169        10.31266        -0.03156
O          5.07012        11.96842        -2.80978
O         12.94876        12.26258         3.33115
O          7.12098        15.44591        -2.43892
O          7.35509         4.64402         2.63186
O         18.82960        10.25816         1.98083
O          8.19318         3.76746        -0.82907
O         18.41434        14.67212         2.35634
O          5.66975         8.31654        -1.64572
O         13.20081         6.11593        -1.43614
O          8.00724        11.95748        -1.67234
O          3.79795         3.40716        -1.15869
O          9.18637        14.34863        -1.30944
O         16.95281         3.66340         1.00398
O          4.99946         3.45117         2.21496
O          8.00821        11.83239         2.09186
O          4.57858        14.23298        -0.16284
O          3.38845         7.35678        -1.91489
O         13.95480        16.62095         3.26622
H         13.25666        16.18188         3.80139
O         21.64942         6.81458        -0.17735
H         21.35391         6.21120         0.54361
O         18.02629         7.94862         1.14664
H         18.84629         9.26104         1.95648
O         22.13771        15.08237         0.77264
H         22.10618        14.18249         1.16933
O         19.77484         8.04791        -3.02855
H         19.25264         8.86138        -3.18834
O         10.38018        16.51171         2.95248
H         10.86550        15.90698         3.56439
O         17.55042        17.23953         3.01884
H         17.83823        16.34797         3.32079
O          9.30851         9.84691         3.41876
H          9.19526        10.79649         3.67067
O          3.85467        16.59761        -3.81331
H          3.29057        17.00813        -4.50281
O         13.93097        14.59811         0.19652
H         13.65474        15.38441        -0.33944
O         20.66646        12.55475         1.79353
H         20.38236        11.65581         2.08219
O         15.76569        12.70246        -0.36494
H         14.88074        12.37718        -0.67401
O         16.51036        15.88025        -0.17229
H         15.94425        15.09898        -0.38883
O         12.83781         8.50056        -1.16122
H         12.86175         7.69337        -1.77200
O         12.09776        14.66888         3.41884
H         12.74947        14.13331         3.94220
O          6.18462        18.30310        -3.21174
H          5.64072        17.65468        -3.71891
O         14.39873        17.10122        -0.29041
H         15.22463        17.14062        -0.82724
O         10.34931        12.27833         3.41015
H         11.07620        12.08691         4.04461
O         10.53820        19.38946         2.81329
H         10.38715        18.48074         3.17147
O          9.55479         5.92269        -0.69971
H          9.04476         5.15030        -1.10296
O          6.01804        10.60180         1.59414
H          6.08354        10.34765         2.53780
O         17.76496         6.75188        -2.31048
H         17.76302         5.87415        -2.74640
O         19.68685         5.52689         0.58869
H         18.91686         5.02816         0.93855
O          7.28378        -0.11627         0.71850
H          7.20433        -0.08924         1.69410
O         13.78434         9.73490         2.91092
H         13.39567        10.23889         3.65862
O         13.70827         3.17635         2.17261
H         13.71338         4.02608         2.66461
O          2.43923        12.81641        -0.29491
H          2.48695        11.95687         0.19292
O         11.65610        15.10927        -0.19674
H         11.09786        14.59181        -0.81895
O         11.15502         5.94509         2.62695
H         10.44648         6.39574         3.15153
O         11.41265         1.68821         2.44853
H         12.27938         2.14349         2.61089
O         16.17244        10.28183         2.41597
H         17.14725        10.33896         2.58615
O          1.31224         3.55497        -0.71524
H          1.93093         3.49146        -1.48670
O          7.71710         9.59099        -1.36421
H          7.50101         9.64698        -2.31804
O         16.89939        10.44155        -1.18933
H         16.58273        11.37954        -1.23580
O          3.55350        16.61225        -0.17080
H          3.83716        15.93360         0.48503
O         14.70356        14.20381         3.70327
H         15.39883        13.62290         4.07794
O          5.91501        19.69981         0.11113
H          6.56262        20.06147         0.75049
O          4.98551         8.44815         1.97493
H          4.59636         7.72935         2.53546
O          3.46378        13.84353        -3.61771
H          3.69051        14.73756        -3.97222
O         14.13297        10.71204        -0.59729
H         13.59928        10.03722        -1.10792
H          0.95829         2.06423         2.93887
H          0.78962         4.39408         2.15217
H          2.59078         0.46796         1.99369
H          0.17146         5.83504        -0.30150
H          0.33317         8.20852        -0.97450
H          0.94149         9.84127        -2.60019
H          1.10254        12.25351        -2.99235
H          0.84658        14.35305        -2.10953
H          0.98587        16.78556        -2.43637
H          2.19831        18.86317        -2.41479
H          4.80757         0.15129         0.24888
H          4.21562        20.14392        -1.82645
H          7.31717         1.16074        -0.89261
H          6.98439        20.05752        -1.65470
H          9.68583         0.23808         0.84870
H          8.85059        20.22682         0.06319
H         11.98986         0.47051        -0.22746
H         11.16626        20.24479         1.03366
H         14.31735         0.61550        -1.10659
H         13.56331        20.27959         1.71491
H         16.62298         0.68949        -1.82485
H         15.97013        20.36041         1.18279
H         18.81445         0.82843        -2.88665
H         18.14030        20.43578         0.32682
H         20.78645         2.17864        -3.57421
H         22.03308         4.31069        -3.57203
H         22.40078         6.55570        -2.74704
H         22.47604         8.53481        -2.40356
H         22.54484        10.87372        -1.80491
H         21.71471        12.62781        -2.41538
H         21.98533        15.02541        -2.21620
H         22.60247        16.94728        -1.47884
H         20.29642        20.55440        -0.88681
H         22.29864        19.38923        -1.79164
