         232
 CSIRO Nanostructure Databank - Neutral Graphene Oxide Data Set
C        -11.14158         0.66879         0.52803
C         -9.90288         1.44624         0.47984
C         -8.62640         0.81210         0.18725
C         -7.55496         1.54438        -0.52194
C         -6.25172         0.79787        -0.77256
C         -4.95658         1.61724        -0.90079
C         -3.69700         0.81275        -0.55891
C         -2.47987         1.49602        -0.44309
C         -1.25214         0.79020        -0.44450
C         -0.00914         1.50827        -0.28181
C          1.21763         0.75512        -0.23496
C          2.46575         1.49534         0.03903
C          3.72660         0.71124         0.28880
C          4.89769         1.45707         0.85630
C          6.20987         0.72715         0.96391
C          7.43659         1.48823         0.64723
C          8.60277         0.75270         0.08075
C          9.93390         1.44571         0.24940
C         11.09149         0.65814        -0.31280
C         -9.93612         2.83068         0.47562
C         -8.74861         3.62487         0.28388
C         -7.52926         3.06869        -0.42888
C         -6.21784         3.62032         0.13603
C         -5.01396         2.92633        -0.10912
C         -3.79025         3.57246         0.13237
C         -2.50954         3.00100        -0.45402
C         -1.22104         3.62587         0.01577
C         -0.01681         2.91265        -0.08944
C          1.28441         3.68179        -0.04284
C          2.38386         2.88072         0.66975
C          3.70573         3.61530         0.59260
C          4.91635         2.92203         0.63151
C          6.16974         3.61077         0.60924
C          7.42124         2.86102         0.53025
C          8.64221         3.59504         0.12214
C          9.82373         2.88556        -0.15878
C         -8.70979         4.94884         0.62961
C         -7.47288         5.70698         0.60705
C         -6.19739         4.97569         0.57103
C         -4.97461         5.62859         0.87268
C         -3.77177         4.86749         0.70106
C         -2.47639         5.36330         1.08454
C         -1.23788         4.93796         0.57995
C         -0.00432         5.71074         0.79981
C          1.19132         5.08283         0.52029
C          2.45953         5.76998         0.60774
C          3.69668         5.03266         0.55990
C          4.94584         5.72051         0.50997
C          6.16934         5.00987         0.51443
C          7.46459         5.78693         0.58987
C          8.60326         4.99229         0.01563
C         -7.49827         7.07422         0.62764
C         -6.27260         7.86302         0.81560
C         -4.97065         7.12326         1.07203
C         -3.74466         7.93258         0.78756
C         -2.49398         7.46744         1.18945
C         -1.27391         7.96424         0.73428
C         -0.02247         7.20870         1.01794
C          1.26909         7.98686         0.80281
C          2.50606         7.16190         0.74287
C          3.76740         7.78864         0.83016
C          4.96223         7.15195         0.52295
C          6.15746         7.87534         0.08233
C          7.33728         7.18272         0.02677
C         -6.21286         9.21590         0.21594
C         -5.05075         9.82242        -0.11867
C         -3.76319         9.20445         0.15878
C         -2.54160         9.84106        -0.14751
C         -1.28930         9.22596         0.09410
C         -0.02942         9.82112        -0.29170
C          1.19645         9.28809         0.04079
C          2.37833         9.87654        -0.60140
C          3.65448         9.73445        -0.12935
C          4.94013         9.96555        -0.77359
C          6.04512         9.18802        -0.56834
C        -11.33857        -0.68807         0.45424
C        -10.27853        -1.66761         0.62953
C         -8.42098        -0.51420         0.46428
C         -7.34799        -1.30598        -0.04451
C         -6.20271        -0.63888        -0.44665
C         -4.91181        -1.32261        -0.30369
C         -3.65935        -0.59493        -0.55357
C         -2.44235        -1.30900        -0.67547
C         -1.23480        -0.61375        -0.67111
C          0.04471        -1.31046        -1.08595
C          1.28724        -0.61173        -0.52667
C          2.52972        -1.33257        -0.37642
C          3.65650        -0.75624         0.21726
C          4.83315        -1.54958         0.64459
C          6.19997        -0.78068         0.89204
C          7.45686        -1.45889         0.50844
C          8.54117        -0.71876        -0.18134
C          9.78713        -1.49478        -0.64633
C         11.05254        -0.66262        -0.54345
C        -10.06042        -2.92621         0.14406
C         -8.73023        -3.57924         0.19849
C         -7.47137        -2.79193        -0.11095
C         -6.17109        -3.53739        -0.22204
C         -4.88042        -2.78342        -0.03193
C         -3.54360        -3.52112        -0.12430
C         -2.51524        -2.78897        -1.03109
C         -1.18732        -3.53467        -0.90152
C         -0.00986        -2.81927        -0.85285
C          1.28583        -3.53575        -0.95371
C          2.56654        -2.75860        -0.80737
C          3.86454        -3.51446        -0.66351
C          4.88734        -2.96657         0.23581
C          5.88514        -3.81279         0.68364
C          7.69978        -2.75559         0.86256
C          8.79890        -3.58371         0.38210
C          9.90435        -2.91469        -0.12435
C         -8.65804        -4.93954         0.29945
C         -7.42633        -5.74974        -0.05907
C         -6.14609        -4.97456         0.17470
C         -4.83637        -5.68060         0.09759
C         -3.72939        -4.96426        -0.66947
C         -2.40214        -5.70412        -0.66848
C         -1.21288        -4.99492        -0.90005
C          0.07704        -5.71968        -1.30207
C          1.27715        -5.02810        -0.63147
C          2.57626        -5.74896        -0.92184
C          3.86334        -5.02987        -0.84888
C          5.04964        -5.79164        -0.39344
C          6.12525        -5.13123         0.18818
C          7.44886        -5.77092         0.27500
C          8.66681        -5.01372         0.38309
C         -7.29405        -7.14463         0.49837
C         -6.09669        -7.81609         0.41210
C         -4.85846        -7.14686         0.05630
C         -3.66748        -7.81915        -0.21579
C         -2.46004        -7.11862        -0.52657
C         -1.21459        -7.91683        -0.63741
C          0.08411        -7.23162        -1.01356
C          1.36460        -7.89332        -0.62880
C          2.59413        -7.13382        -0.86566
C          3.87967        -7.79972        -0.95462
C          5.07104        -7.19681        -0.61198
C          6.33770        -8.00905        -0.36039
C          7.51710        -7.13076        -0.00981
C         -6.00795        -9.25188         0.66837
C         -4.88345        -9.94533         0.41146
C         -3.62122        -9.33431        -0.15717
C         -2.40135        -9.77902         0.67346
C         -1.13270        -9.17228         0.12942
C          0.07724        -9.72092         0.41561
C          1.33931        -9.11168         0.05184
C          2.51236        -9.71471         0.69067
C          3.77304        -9.65166         0.18405
C          5.01699        -9.81601         0.93111
C          6.12547        -9.06748         0.73098
O         -2.96750        -3.61135         1.18053
H         -3.52798        -3.07890         1.79241
O          9.62816        -1.71006        -2.08440
H          9.15861        -0.91586        -2.43249
O          1.70834         3.86753        -1.41968
H          1.86011         2.98678        -1.82580
O          4.27825        -4.10074        -1.92823
O         -5.73459         7.68609         2.18463
O         -9.22744        -1.14972         1.41198
O          6.68044        -8.72846        -1.56958
H          5.88294        -9.24395        -1.82805
O          1.03145        -5.13953         0.79930
H          1.81325        -4.81272         1.29097
O         -0.67481        -7.97587        -2.01749
O         -3.41430        -9.86564        -1.48563
H         -4.07809        -9.46649        -2.08564
O          5.39433        -1.31624         1.96512
O          7.78249         5.94864         2.02516
H          7.80886         5.05078         2.42021
O          3.78568         9.15110         1.14609
O          0.21784        -5.54368        -2.72066
H         -0.34666        -6.22094        -3.15652
O         -7.56292         3.59542        -1.77770
H         -6.99191         2.99436        -2.31941
O         -2.56178        -9.35903         2.03262
H         -3.45607        -9.62516         2.33246
O         -7.51405        -5.93553        -1.50965
H         -7.34853        -5.05206        -1.92326
O         -2.46217         6.35062         2.05293
O          5.44838         1.14274         2.16199
O          1.99379         2.71981         2.05235
H          2.78567         2.48788         2.58172
O          6.77059        -3.39908         1.69494
O         -2.92117        -2.79639        -2.39778
H         -3.38201        -3.67092        -2.59320
O         -2.56945         3.39832        -1.86366
H         -3.38882         2.92651        -2.24391
O         10.13738         1.45050         1.71103
H         10.95107         1.96474         1.89746
O          0.12889        -1.12952        -2.52881
H          0.82895        -1.74673        -2.85553
O         -7.22730         1.04906        -1.84623
O         -4.79744         2.04455        -2.24620
O          0.67581         7.84268         2.13998
O         -6.90722        -3.24182        -1.43050
O          3.43872         1.34568        -1.03147
O          8.18170         0.24698        -1.23861
O         -5.35264        -5.15932         1.38095
O         -4.18974        -4.93633        -1.99391
O          2.00190        -3.05061        -2.13383
O          3.89635        -9.19374        -1.15426
O         -4.88664        -1.90888         1.13136
H         11.97349        -1.17190        -0.86955
H         12.05751         1.18631        -0.37651
H         10.72812         3.43924        -0.45548
H          9.52226         5.52577        -0.27353
H          8.23944         7.66117        -0.38567
H          6.96923         9.51059        -1.07721
H          5.02971        10.81988        -1.46351
H          2.21080        10.42520        -1.54094
H         -0.06108        10.74388        -0.89052
H         -2.56434        10.83862        -0.61023
H         -5.06087        10.80874        -0.60524
H         -7.17174         9.69075        -0.04316
H         -8.45633         7.60821         0.53670
H         -9.60896         5.44403         1.02765
H        -10.87883         3.35663         0.69389
H        -12.05154         1.29015         0.46834
H        -12.36443        -1.05104         0.28292
H        -10.86271        -3.46916        -0.37783
H         -9.59585        -5.50257         0.43115
H         -8.20157        -7.69387         0.79447
H         -6.90770        -9.76709         1.03838
H         -4.86898       -11.03598         0.56457
H         -2.32291       -10.90384         0.63312
H          0.11700       -10.64664         1.00900
H          2.35314       -10.17347         1.67865
H          4.99903       -10.51578         1.78292
H          6.98692        -9.25213         1.39291
H          8.50496        -7.61497        -0.05323
H          9.59165        -5.58287         0.19100
H         10.75394        -3.49702        -0.51457
