         349
 CSIRO Nanostructure Databank - Neutral Graphene Oxide Data Set
C          1.75401         1.99840         2.05017
C          1.66720         3.40250         1.94094
C          2.80886         1.28552         1.50322
C          2.60846         4.13620         1.20718
C          1.43360         6.32629         1.47811
C          1.35164         7.66698         1.30163
C          2.62278         5.56760         1.13472
C          2.53950         8.43305         0.85864
C          1.35366        10.71426         1.19544
C          1.43415        12.02039         1.54159
C          2.55234         9.94494         0.82673
C          2.68902        12.74745         1.48475
C          1.54761        14.95877         1.67255
C          1.58622        16.38167         1.67890
C          2.70766        14.19633         1.65201
C          2.76347        17.08596         1.80627
C          2.79782        18.51547         1.66273
C          3.83690         1.95079         0.77395
C          3.66372         3.38991         0.50969
C          4.99212         1.30207         0.35255
C          4.90150         4.17849         0.01720
C          3.80362         6.26695         0.75980
C          3.86664         7.73502         1.11813
C          4.96155         5.61691         0.30945
C          5.06346         8.47500         0.58084
C          3.86741        10.62808         0.94411
C          3.86572        12.04079         1.21238
C          5.04852         9.90241         0.73040
C          5.10517        12.83054         0.89994
C          3.99292        14.88958         1.74157
C          4.03732        16.35363         2.16395
C          5.15134        14.20441         1.53294
C          5.28442        17.08206         1.68824
C          3.96857        19.20506         1.54461
C          5.25564        18.53395         1.53733
C          6.15709         2.01464        -0.08887
C          6.15377         3.43965        -0.14034
C          7.37085         1.32463        -0.29355
C          7.34767         4.16456        -0.36756
C          6.19841         6.31625         0.08861
C          6.22685         7.76071         0.23811
C          7.36007         5.61653        -0.30698
C          7.47336         8.44180        -0.00828
C          6.37443        10.54354         1.05842
C          6.39159        12.04762         0.95102
C          7.58368         9.85757         0.40644
C          7.54621        12.73694         0.69613
C          6.45367        14.91577         1.55331
C          6.46681        16.39844         1.49330
C          7.64060        14.19299         0.99043
C          7.71223        17.08650         1.21200
C          6.41901        19.23297         1.35663
C          7.76575        18.57477         1.49432
C          8.56476         2.01992        -0.58462
C          8.52450         3.44435        -0.68027
C          9.81745         1.32878        -0.61786
C          9.70828         4.17699        -1.12595
C          8.58662         6.32893        -0.62486
C          8.60317         7.77945        -0.49027
C          9.72479         5.64147        -1.03303
C          9.82327         8.50731        -0.82714
C          8.73943        10.65861        -0.14885
C          8.61974        12.13585        -0.06321
C          9.83109         9.92841        -0.86287
C          9.36270        13.02538        -0.80316
C          8.73634        15.00204         0.42194
C          8.82559        16.41326         0.70972
C          9.63250        14.38573        -0.42596
C         10.02707        17.11663         0.24386
C          8.87770        19.26085         0.75631
C         10.19030        18.54583         0.72131
C         11.04014         2.00034        -0.73906
C         11.03675         3.41920        -1.15267
C         12.27958         1.37631        -0.49436
C         12.28954         4.19353        -1.06000
C         10.96363         6.33059        -1.56262
C         11.00310         7.79712        -1.20477
C         12.27083         5.59392        -1.24962
C         12.22984         8.46491        -1.28955
C         11.04573        10.58623        -1.21068
C         11.13256        11.99721        -1.52923
C         12.25762         9.87079        -1.19981
C         12.22849        12.79561        -1.42367
C         10.95947        15.01398        -0.68139
C         11.00441        16.49289        -0.48528
C         12.18981        14.27257        -1.15035
C         12.17674        17.23516        -1.10578
C         11.29374        19.29893         0.03662
C         12.32462        18.66076        -0.61689
C         13.50989         2.08062        -0.58165
C         13.50648         3.50451        -0.86420
C         14.73574         1.43219        -0.36309
C         14.74374         4.20191        -0.98990
C         13.49302         6.27731        -1.35579
C         13.47854         7.73632        -1.73455
C         14.73394         5.59525        -1.28718
C         14.77122         8.41865        -1.32237
C         13.50603        10.63742        -1.01557
C         13.50678        12.13618        -1.09372
C         14.80289         9.90777        -1.10356
C         14.75186        12.84251        -1.46251
C         13.39478        15.05572        -1.68088
C         13.51461        16.44855        -0.97419
C         14.71583        14.26944        -1.62643
C         14.69037        17.24922        -1.50223
C         13.52681        19.33470        -0.96333
C         14.69731        18.64956        -1.39755
C         15.97705         2.11543        -0.48539
C         15.98159         3.50375        -0.84809
C         17.20523         1.46376        -0.24016
C         17.22108         4.18297        -1.05401
C         16.00089         6.28131        -1.47521
C         16.02913         7.71093        -1.61499
C         17.21002         5.58008        -1.38096
C         17.23017         8.43741        -1.76347
C         15.98571        10.67466        -1.50238
C         15.92423        12.08258        -1.66020
C         17.15364         9.90792        -1.95929
C         17.16539        12.79335        -2.07060
C         15.86066        14.97837        -1.93600
C         15.90180        16.48734        -1.98148
C         17.14508        14.29152        -2.21384
C         17.15774        16.89143        -1.21915
C         15.89852        19.47830        -1.65341
C         17.10785        19.10195        -1.11957
C         18.43787         2.12212        -0.43895
C         18.43963         3.46310        -0.91236
C         19.67614         1.47345        -0.09804
C         19.72077         4.06255        -1.32039
C         18.50395         6.34964        -1.25580
C         18.48538         7.78012        -1.76676
C         19.73492         5.54384        -1.64445
C         19.71123         8.51685        -1.84983
C         18.48328        10.66264        -2.07986
C         18.42536        12.10208        -1.59869
C         19.72190         9.91250        -1.91673
C         19.71689        12.85320        -1.75200
C         18.45273        15.11577        -2.31219
C         18.37629        16.42948        -1.55729
C         19.72059        14.33875        -1.85996
C         19.65177        17.27327        -1.44488
C         18.45109        19.59123        -1.20399
C         19.57656        18.74925        -1.01033
C         20.93580         2.02348        -0.30365
C         21.01892         3.31996        -1.05736
C         22.08200         1.37608         0.27216
C         22.23390         4.20798        -0.87073
C         21.01114         6.31759        -1.64172
C         21.02035         7.80584        -1.82846
C         22.22735         5.69729        -1.03938
C         22.33632         8.53327        -1.68072
C         20.96089        10.70700        -1.75556
C         20.85002        12.15405        -1.43413
C         22.29823        10.03974        -1.58490
C         21.98636        12.79875        -0.74247
C         20.84214        15.06483        -1.17347
C         20.67857        16.47728        -0.62218
C         21.91834        14.27099        -0.48878
C         22.01638        17.16765        -0.54018
C         20.82938        19.33039        -0.76311
C         22.04960        18.58243        -0.60045
C         23.40422         1.63254        -0.10989
C         23.57515         3.62596        -0.92623
C         24.61870         1.38951         0.54779
C         24.73415         4.27625        -0.56369
C         23.52451         6.43826        -0.98285
C         23.53785         7.79903        -1.17669
C         24.74546         5.73971        -0.59653
C         24.79727         8.55646        -1.02777
C         23.38446        10.74212        -0.86762
C         23.26687        12.09535        -0.52172
C         24.69653        10.07714        -0.86729
C         24.34395        12.81247         0.06193
C         23.17601        14.98748        -0.20874
C         23.19791        16.41172        -0.30087
C         24.32855        14.24397         0.14554
C         24.44994        17.08443        -0.16635
C         23.29851        19.24103        -0.45006
C         24.49403        18.52503        -0.24985
C         25.82554         2.11866         0.27992
C         25.91045         3.51070        -0.15852
C         27.02521         1.46339         0.64380
C         27.10628         4.21639         0.04590
C         25.93726         6.43840        -0.40723
C         26.00786         7.87864        -0.50286
C         27.24496         5.68274        -0.33479
C         27.15107         8.58885        -0.09835
C         25.86514        10.81133        -0.28559
C         25.45884        11.96046         0.63572
C         27.17561        10.08744        -0.06247
C         26.62181        12.74900         1.23354
C         25.53913        14.96461         0.43322
C         25.61237        16.33478         0.16293
C         26.64102        14.24334         1.13227
C         26.95806        17.00381         0.02134
C         25.73282        19.20357        -0.04300
C         26.93521        18.51390         0.17481
C         28.25376         2.12420         0.68323
C         28.27766         3.54116         0.48694
C         29.47554         1.42855         0.98825
C         29.45281         4.26622         0.83427
C         28.27721         6.42851         0.48314
C         28.23504         7.85103         0.55191
C         29.39335         5.69383         0.97528
C         29.25472         8.53619         1.27099
C         28.31672        10.85146         0.65695
C         27.83153        11.92248         1.69680
C         29.30741         9.94741         1.36414
C         29.05177        12.79562         2.12401
C         27.87613        15.02662         1.46990
C         28.00310        16.40545         0.93061
C         29.16061        14.34803         1.97944
C         29.34000        17.04152         0.84819
C         28.14941        19.16588         0.41865
C         29.37520        18.44644         0.64042
C         30.63196         2.11925         1.20465
C         30.62844         3.55820         1.22244
C         31.73847         4.27648         1.69786
C         30.46422         6.34882         1.64272
C         30.19379         7.73931         2.15463
C         31.63238         5.64757         1.94942
C         31.41965         8.48597         2.59119
C         30.36516        10.58972         2.01341
C         30.34802        12.06410         2.21463
C         31.45066         9.83904         2.57808
C         31.61156        12.81830         2.01400
C         30.35090        14.74894         1.04758
C         30.50540        16.27536         0.99451
C         31.62026        14.03817         1.46369
C         31.74008        16.94829         0.96754
C         30.63318        19.09231         0.65298
C         31.79175        18.34179         0.82133
O         10.29370         3.66464        -2.39936
O          8.75938        10.10330         1.24672
O         17.04750        17.93441        -0.31402
O          7.47968        14.39108         2.45743
O         27.52106        16.19422         2.30210
O         14.88038         8.96213         0.03934
O          3.83207         3.77077        -0.89164
O         21.93002        10.62414        -2.88392
O         26.11732        13.55600         2.34732
O         23.59387         2.30386        -1.34853
O         29.56607        12.39244         3.42788
O         20.43696         5.76170        -2.88421
O         25.01770         9.46750        -2.15215
O         13.49504        11.46655         0.21481
O         11.97522        14.41563         0.30096
O         26.90427        10.88386        -1.28817
O         17.10813        13.37481        -3.39381
O         20.41795         3.28370        -2.36778
O         21.87602         8.09350        -2.99102
O         17.68927        10.37543        -3.25181
O          2.40568         9.12653        -0.40938
O         21.45275        13.36593         0.56244
O          9.95019        12.58263        -1.98808
O         22.00432         5.09190         0.29093
O         20.88732        14.85488        -2.61139
O         27.77450         5.68735        -1.71189
H         27.10320         5.26199        -2.28698
O          4.98201        13.13783        -0.55603
H          4.06288        13.44482        -0.71481
O         10.88132         6.29382        -3.03516
H         10.69980         5.34785        -3.26775
O         20.15783        17.43421        -2.78528
H         20.24151        16.54201        -3.20565
O         18.59527        15.42487        -3.72179
H         18.42227        14.58889        -4.21625
O          8.11092        18.72520         2.92630
H          9.07336        18.50186         3.00495
O         24.85277        11.23970         1.75347
H         24.74189        11.89558         2.47795
O         20.13719        16.34013         0.71482
H         20.77040        15.82382         1.25765
O         29.46631        14.87326         3.27206
H         28.80301        15.57543         3.47218
O          4.10561        16.37273         3.62724
H          4.97471        16.00031         3.88923
O          6.50496        10.26453         2.49919
H          7.45791        10.40259         2.71475
O         29.09268        11.55968        -0.33058
H         28.54386        11.63482        -1.14762
O         13.81840        16.25674         0.42105
H         13.22146        15.54125         0.76482
O         29.41951         7.52111         3.40429
H         29.16278         8.40767         3.74015
O         27.39493        11.16864         2.83658
H         27.21847        11.80719         3.56048
O         11.88867        17.35210        -2.52505
H         11.10406        17.92980        -2.62766
O         27.39519        16.72347        -1.34224
H         26.77156        17.16499        -1.95634
O         13.14128        15.23452        -3.08719
H         13.81760        15.84361        -3.45551
O         13.45147         7.78297        -3.19214
H         12.63062         7.31030        -3.47554
O         29.97441        14.31326        -0.28159
H         30.72641        14.47057        -0.88911
O         16.12588        16.89184        -3.36743
H         16.97864        16.49137        -3.67696
O          4.04911         7.76430         2.58189
H          4.71252         8.45695         2.79845
O         10.67682        18.39989         2.13833
H         11.47071        17.82145         2.11190
O         18.69333         6.49133         0.20688
H         17.89024         6.92033         0.57446
O         18.23012        12.02952        -0.14056
H         19.09095        12.15525         0.31522
H          0.98614         1.46629         2.62886
H          0.85456         3.91864         2.47014
H          2.88329         0.19990         1.66029
H          0.53515         5.77586         1.79082
H          0.39351         8.18467         1.45057
H          0.37685        10.21193         1.16994
H          0.51717        12.55404         1.82556
H          0.56423        14.47842         1.58080
H          0.64588        16.92945         1.51526
H          1.83811        19.05094         1.59914
H          5.07744         0.21468         0.49964
H          3.95595        20.29753         1.41814
H          7.39362         0.22956        -0.19536
H          6.38679        20.32968         1.26489
H          9.82107         0.25018        -0.40105
H          8.89621        20.36342         0.77096
H         12.29590         0.30866        -0.22939
H         11.41474        20.35902         0.31266
H         14.74001         0.36143        -0.11051
H         13.59311        20.41674        -0.77233
H         17.20164         0.41630         0.09579
H         15.78474        20.42567        -2.20002
H         19.60921         0.49299         0.39763
H         18.62695        20.67422        -1.31490
H         21.90319         0.66173         1.09018
H         20.88766        20.42381        -0.63836
H         24.66532         0.60743         1.32111
H         23.33317        20.34009        -0.48502
H         26.98392         0.39559         0.90545
H         25.73193        20.30392        -0.01044
H         29.45528         0.33122         1.05564
H         28.17965        20.26637         0.40896
H         31.56393         1.59064         1.45220
H         32.66049         3.74068         1.96515
H         32.48319         6.15661         2.42099
H         32.23174         7.93327         3.08206
H         32.30672        10.37747         3.00888
H         32.56223        12.32795         2.27556
H         32.58866        14.52735         1.28207
H         32.68671        16.40151         1.07057
H         30.69068        20.18086         0.51185
H         32.76969        18.84337         0.82299
