         404
 CSIRO Nanostructure Databank - Neutral Graphene Oxide Data Set
C          1.42289         3.89003        -3.06961
C          0.26737         4.42155        -2.56434
C          0.91976         6.75511        -2.11868
C          0.12899         5.67857        -1.84761
C          1.07524         8.03453        -1.41306
C         -0.12221         8.70031        -1.04552
C          1.11700        10.72634        -0.56570
C         -0.10898        10.02553        -0.67266
C          1.13573        12.12940        -0.22837
C         -0.06628        12.90244        -0.14872
C          1.14196        14.94483         0.43558
C         -0.05419        14.25869         0.11929
C          1.20340        16.35022         0.67970
C          0.01347        17.08894         0.89937
C          1.21847        19.20821         0.85587
C          0.02543        18.46503         1.00945
C          1.19571        20.66115         0.92240
C          0.00242        21.38168         1.18093
C          1.17844        23.50580         0.95776
C         -0.00887        22.76241         1.15763
C          1.16587        24.95355         0.96129
C         -0.04248        25.67971         0.86517
C          1.15555        27.78736         1.07980
C         -0.04423        27.06137         0.87968
C          1.15872        29.25242         1.08385
C         -0.03657        29.98236         1.02789
C          1.16507        32.09478         0.81584
C         -0.03641        31.36989         0.90170
C          1.16765        33.53849         0.65071
C         -0.01459        34.30423         0.52738
C          1.24053        36.39221         0.25315
C          0.02395        35.67506         0.29321
C          1.22322        37.73723        -0.29536
C          3.89458         3.74035        -2.71273
C          2.74046         4.48096        -2.89752
C          3.76389         6.55894        -1.98491
C          2.82009         5.92031        -2.73253
C          3.64892         8.01169        -1.60720
C          2.33025         8.65436        -1.23238
C          3.57118        10.69530        -0.44620
C          2.34776        10.01066        -0.73527
C          3.60025        12.06888        -0.12986
C          2.36920        12.77318         0.00475
C          3.71850        14.92561         0.48514
C          2.37024        14.15687         0.48811
C          3.68561        16.39327         0.39717
C          2.45539        17.06677         0.60938
C          3.65682        19.21191         0.39827
C          2.44139        18.50145         0.63888
C          3.58492        20.67283         0.26515
C          2.38064        21.39531         0.69261
C          3.65866        23.54957         0.76774
C          2.40422        22.81254         0.77369
C          3.64634        24.95063         1.03583
C          2.39125        25.66472         1.08015
C          3.60217        27.81408         1.62961
C          2.36277        27.07924         1.20299
C          3.63598        29.26361         1.20743
C          2.39980        29.96244         1.06500
C          3.65312        32.08115         0.85952
C          2.40237        31.38373         0.91381
C          3.65221        33.50122         0.68780
C          2.41329        34.21979         0.60678
C          3.69403        36.28145         0.64057
C          2.43424        35.64646         0.51859
C          3.64386        38.21490        -0.29784
C          2.28526        38.50985        -0.69382
C          6.29617         3.69877        -2.13535
C          5.09466         4.37910        -2.24840
C          6.23289         6.47307        -1.32621
C          4.97584         5.76027        -1.68950
C          6.20568         7.93514        -1.06108
C          4.91241         8.67401        -1.12507
C          6.08970        10.66562        -0.17093
C          4.80384         9.87616        -0.19780
C          6.11557        12.04727        -0.21373
C          4.86466        12.80083        -0.11569
C          6.07336        14.97711        -0.35820
C          4.88590        14.18648        -0.00060
C          6.12888        16.41729        -0.06595
C          4.90117        17.11016         0.19042
C          6.13757        19.28217         0.12057
C          4.88451        18.54505         0.20973
C          6.14130        20.67211         0.23125
C          4.89788        21.45206         0.19836
C          6.12907        23.54531         0.80635
C          4.89269        22.86859         0.60563
C          6.12258        24.94652         1.08322
C          4.87858        25.66902         1.16601
C          6.08949        27.81245         1.45889
C          4.88135        27.07717         1.34183
C          6.09503        29.22158         1.40640
C          4.86435        29.94572         1.17799
C          6.12452        32.08773         0.88000
C          4.88476        31.37482         0.97100
C          6.11073        33.48440         0.67129
C          4.89050        34.18835         0.55652
C          6.10024        36.34299         0.04866
C          4.91115        35.62451         0.43129
C          6.05889        37.65332        -0.56827
C          4.83314        38.33683        -0.96979
C          8.69768         3.65705        -1.53744
C          7.52304         4.34280        -1.74373
C          8.72658         6.49677        -1.12299
C          7.53559         5.85415        -1.78150
C          8.62623         7.81602        -0.70919
C          7.36169         8.53613        -0.64629
C          8.61490        10.64101         0.08152
C          7.32803         9.85591         0.11022
C          8.58732        12.08906         0.11422
C          7.38022        12.76032        -0.15779
C          8.65461        14.96071        -0.25909
C          7.41482        14.19689        -0.44139
C          8.62826        16.39234        -0.17260
C          7.37041        17.10551        -0.07597
C          8.62145        19.20378         0.25427
C          7.39144        18.53681         0.08375
C          8.69203        20.67397         0.26373
C          7.38682        21.45173         0.23293
C          8.59664        23.50039         0.97749
C          7.37933        22.85274         0.70528
C          8.57796        24.90891         1.27869
C          7.35151        25.61151         1.30140
C          8.67008        27.77879         1.71702
C          7.33895        27.04192         1.65704
C          8.69129        29.26652         1.57672
C          7.35558        29.99164         1.47137
C          8.59708        31.97893         0.64999
C          7.38184        31.37778         0.96167
C          8.66367        33.44896         0.51790
C          7.35902        34.26210         0.63205
C          8.55324        36.22986        -0.30365
C          7.33911        35.63911         0.09842
C          8.52490        37.57804        -0.83075
C          7.26565        38.21972        -0.98737
C         11.11867         3.59938        -0.99706
C          9.94203         4.31700        -1.19295
C         11.14589         6.38308        -0.61451
C          9.95485         5.75099        -1.01267
C         11.17971         7.84584        -0.50610
C          9.85698         8.58221        -0.49372
C         11.06307        10.58894         0.43675
C          9.79935         9.94896         0.05537
C         11.06729        12.12525         0.47579
C          9.81764        12.82280         0.13276
C         11.14534        14.89287        -0.20802
C          9.84457        14.21343        -0.09234
C         11.13960        16.42706        -0.16927
C          9.84768        17.10987         0.01451
C         11.09240        19.19008         0.61493
C          9.85514        18.49124         0.31632
C         11.08989        20.59495         0.92821
C          9.89119        21.35062         0.77461
C         11.05928        23.40509         1.35884
C          9.85694        22.75106         1.00719
C         11.05075        24.85307         1.59335
C          9.81689        25.62490         1.43352
C         11.12277        27.73668         1.17394
C          9.89344        27.01910         1.43111
C         11.09453        29.14227         0.86787
C          9.89073        29.89208         0.98334
C         11.01474        31.85077         0.01249
C          9.84027        31.23659         0.55602
C         10.87787        33.16686        -0.71981
C          9.79094        34.07677        -0.16579
C         11.01349        36.09252        -0.85461
C          9.75180        35.43356        -0.44147
C         10.98128        37.59081        -1.29599
C          9.67288        38.20605        -1.32987
C         13.54349         3.52511        -0.45184
C         12.33956         4.23490        -0.60197
C         13.53422         6.32362         0.04101
C         12.34251         5.65402        -0.37938
C         13.52050         7.73545         0.28667
C         12.37082         8.48859         0.07402
C         13.56448        10.60620         0.47604
C         12.34366         9.88889         0.33126
C         13.57580        12.04558         0.38502
C         12.37311        12.78301         0.31560
C         13.59363        14.89693         0.25278
C         12.38989        14.18276         0.11554
C         13.55351        16.32739         0.36781
C         12.38163        17.08195         0.26271
C         13.52975        19.18442         0.91543
C         12.32899        18.48737         0.61397
C         13.52506        20.53275         1.30678
C         12.30109        21.25750         1.31511
C         13.50515        23.40890         1.65463
C         12.29393        22.69350         1.50443
C         13.57927        24.81618         1.22381
C         12.36216        25.62424         1.45966
C         13.56456        27.70621         0.75152
C         12.34604        27.04540         1.10810
C         13.51110        29.06751         0.36320
C         12.29124        29.78749         0.41714
C         13.46820        31.83571        -0.41520
C         12.23583        31.16421        -0.01336
C         13.41081        33.23155        -0.80580
C         12.18882        33.88459        -0.91965
C         13.38635        36.00021        -1.63200
C         12.08577        35.25553        -1.52829
C         13.34013        37.37470        -2.04799
C         12.10133        38.06371        -2.08300
C         15.97602         3.46575        -0.04564
C         14.74634         4.17933        -0.08445
C         15.96729         6.24777         0.57388
C         14.74046         5.58444         0.20574
C         15.99772         7.67640         0.73924
C         14.70648         8.41979         0.91364
C         16.02814        10.55501         0.44639
C         14.78303         9.88922         0.56831
C         16.03809        11.98000         0.22943
C         14.83728        12.72049         0.25488
C         16.06028        14.84972         0.44969
C         14.84560        14.17043         0.30911
C         16.06612        16.22235         0.96548
C         14.76824        16.98268         0.88329
C         16.10543        19.17508         0.95263
C         14.81520        18.46469         0.76694
C         16.08727        20.58331         1.37044
C         14.79234        21.18211         1.72063
C         16.05668        23.43667         1.81947
C         14.76774        22.73291         1.90940
C         16.12990        24.97344         1.76445
C         14.87545        25.57019         1.11682
C         16.04311        27.72864         0.58495
C         14.83858        27.03694         0.85999
C         16.03690        29.06067         0.11306
C         14.71662        29.66059        -0.31828
C         15.92488        31.85017        -0.64759
C         14.69598        31.16366        -0.40364
C         15.86375        33.23560        -0.99303
C         14.64660        33.91330        -1.12707
C         15.79049        35.99211        -1.95106
C         14.60477        35.31466        -1.54893
C         15.76904        37.34631        -2.38275
C         14.53733        38.02346        -2.43128
C         18.43752         3.40002         0.26015
C         17.17562         4.10984         0.26986
C         18.41326         6.13374         1.03229
C         17.16139         5.49663         0.61161
C         18.45818         7.68153         1.07343
C         17.20520         8.40109         0.77207
C         18.55701        10.43932         0.26909
C         17.24212         9.80126         0.53424
C         18.60799        11.93703        -0.02772
C         17.29621        12.67825        -0.08627
C         18.61265        14.94685         0.16302
C         17.30427        14.20808         0.03351
C         18.62692        16.31506         0.69454
C         17.37532        16.95581         1.12248
C         18.63188        19.22184         1.05965
C         17.38056        18.45676         1.26486
C         18.58756        20.64739         1.07412
C         17.28665        21.26776         1.46849
C         18.83222        23.57913         0.82648
C         17.18632        22.65159         1.88443
C         18.19416        24.72168         0.28506
C         17.26054        25.51507         0.91061
C         18.61426        27.66080         0.21450
C         17.33164        26.98677         0.68571
C         18.51448        29.10347        -0.14983
C         17.24660        29.75927        -0.20149
C         18.41946        31.84306        -0.77928
C         17.19306        31.15793        -0.56003
C         18.43311        33.29051        -1.11081
C         17.12123        33.98047        -1.22980
C         18.33673        35.98645        -2.31122
C         17.04241        35.24456        -2.01627
C         18.24053        37.45300        -2.44826
C         17.00790        38.05360        -2.59737
C         19.62671         4.02839         0.50401
C         20.87384         6.12749         0.97594
C         19.68355         5.42461         0.84157
C         20.91155         7.54328         1.03490
C         19.76869         8.33161         0.94609
C         20.97052        10.49972         0.73914
C         19.80581         9.76060         0.68996
C         20.98974        11.91615         0.57478
C         19.87148        12.65762         0.27703
C         21.07952        14.89515         0.76736
C         19.93560        14.14872         0.22974
C         21.05175        16.25547         0.86073
C         19.82546        17.01854         0.79453
C         21.01849        19.21767         0.68171
C         19.83163        18.48457         0.89949
C         20.97185        20.59327         0.52401
C         19.78439        21.34667         0.67635
C         20.79844        23.33944        -0.62548
C         19.79869        22.76085         0.24748
C         20.97405        24.68684        -0.88759
C         19.93020        25.66908        -0.67899
C         21.08252        27.78215        -0.16707
C         19.89668        26.97228        -0.21034
C         20.99290        29.14280        -0.19852
C         19.71961        29.82028        -0.31655
C         20.88132        32.01759        -0.72451
C         19.66625        31.21605        -0.61575
C         20.89981        33.25443        -1.25762
C         19.65235        33.84549        -1.85981
C         20.69996        36.18079        -1.72694
C         19.61725        35.36962        -1.90636
C         20.62443        37.59951        -1.95962
C         19.45986        38.20965        -2.32972
O          4.10688        21.17974        -1.01192
O         18.42479        23.25859         2.12832
O         11.81611        25.29654         2.77185
O         19.44514        14.74864        -1.01157
O         15.20918        16.41157         2.15264
O         11.44772        37.08645         0.04337
O          8.25628        34.10287         1.76897
O          6.65647        14.58978        -1.63661
O         18.64689        25.15601        -0.96492
O         10.95603        11.33865         1.70211
O         14.30533        24.89665        -0.06714
O         17.95629        34.14168        -0.01432
O         18.32655         6.87502         2.29057
O          1.75014         6.66116        -3.25275
O         14.72307        21.79349         3.03728
O          8.00556        27.32579         2.93572
O          5.47556         5.78252        -0.28408
O         10.71084         8.55126        -1.71319
O         18.68888        10.95930        -1.11045
O          8.11697        29.92529         2.73978
O          3.15448        14.37174         1.71467
O         11.24863        15.69689        -1.43123
O         17.17786        13.53746        -1.25991
O         18.31116        27.52747         1.66700
O          4.44648         8.90727        -2.48586
O         15.60312        18.91079        -0.41307
O         17.42868        17.60645         2.44592
O         17.63018        35.21296        -3.36635
O          3.72429        37.63285         0.98861
O          8.18653        21.27056        -0.98988
O         11.58508        35.07875        -2.92315
H         12.33303        34.73223        -3.45654
O         16.17202        25.51281         3.09719
H         17.05043        25.31464         3.48346
O         10.36957        32.79704        -2.05760
H         10.55859        33.57072        -2.64828
O          7.23739         9.43956         1.52026
H          6.34411         9.02867         1.63941
O         19.59418        33.37417        -3.23160
H         18.87232        33.88096        -3.68033
O         14.44502         8.37337         2.37825
H         15.26989         8.64965         2.83237
O          7.63239         6.21907        -3.19898
H          8.54238         6.01558        -3.50232
O          3.51709        27.85182         3.11251
H          4.34564        28.26545         3.43957
O          4.59735         9.28802         1.14452
H          4.36159        10.01942         1.75530
O         14.58957        29.22499        -1.73791
H         14.54725        28.24391        -1.73780
H          1.38548         2.86382        -3.46791
H         -0.63120         3.78367        -2.59296
H         -0.62213         5.73149        -1.04599
H         -1.07714         8.16744        -1.15519
H         -1.06128        10.53074        -0.46852
H         -1.03192        12.42921        -0.36750
H         -1.00497        14.80790         0.08477
H         -0.94227        16.55882         1.00486
H         -0.92589        18.97986         1.19367
H         -0.93807        20.85264         1.38030
H         -0.95743        23.28455         1.33981
H         -0.99549        25.14973         0.73611
H         -0.99940        27.58778         0.75533
H         -1.00490        29.46751         1.07772
H         -1.00160        31.89146         0.85734
H         -0.99506        33.81026         0.56137
H         -0.91811        36.21338         0.11157
H          0.22208        38.08468        -0.60063
H          3.88927         2.64995        -2.85993
H          2.09277        39.38117        -1.33863
H          6.32953         2.62899        -2.39526
H          4.87447        38.93154        -1.89483
H          8.70127         2.55760        -1.60200
H          7.24793        39.20920        -1.46809
H         11.11685         2.50859        -1.14301
H          9.55644        39.13186        -1.91314
H         13.56425         2.44324        -0.65087
H         12.01827        39.02115        -2.61651
H         15.98246         2.39427        -0.29497
H         14.50700        39.08090        -2.73126
H         18.42442         2.32918         0.01001
H         16.95690        39.14403        -2.73776
H         20.57071         3.46735         0.43949
H         21.82731         5.58331         0.90916
H         21.90082         8.02176         1.01257
H         21.91994        10.01000         0.99457
H         21.95161        12.42191         0.73667
H         21.99694        14.35778         1.04506
H         21.96839        16.77573         1.17325
H         21.97916        18.69967         0.56030
H         21.90472        21.12014         0.28062
H         21.61217        22.67073        -0.94662
H         21.93742        25.01035        -1.31213
H         22.06466        27.28919        -0.21442
H         21.91968        29.72887        -0.22396
H         21.82310        31.59654        -0.34667
H         21.85306        33.79580        -1.33803
H         21.67304        35.76451        -1.43206
H         21.53997        38.19451        -1.83641
H         19.42481        39.29613        -2.49505
