         422
 CSIRO Nanostructure Databank - Neutral Graphene Oxide Data Set
C          1.33011         1.95584        -0.33665
C          1.27245         3.33739        -0.25656
C          2.54130         1.26591        -0.51688
C          2.39417         4.16010        -0.65346
C          1.21881         6.32315        -0.19719
C          1.18929         7.70404        -0.14314
C          2.43299         5.62458        -0.39109
C          2.37964         8.45797        -0.25575
C          1.16201        10.66377        -0.18890
C          1.18287        12.04777        -0.21559
C          2.35339         9.90741        -0.30533
C          2.38420        12.76893        -0.43557
C          1.24877        14.99429        -0.11771
C          1.30833        16.38019         0.01929
C          2.41005        14.24280        -0.47707
C          2.44997        17.10926        -0.32433
C          2.55921        18.49207         0.02790
C          3.76910         1.95536        -0.54326
C          3.77817         3.40705        -0.77295
C          4.99957         1.31338        -0.32644
C          4.99074         4.17303        -0.52687
C          3.64073         6.33773        -0.44301
C          3.61815         7.75806        -0.35803
C          4.96007         5.66070        -0.79705
C          4.85405         8.50492        -0.32956
C          3.57268        10.61397        -0.48412
C          3.56716        12.03361        -0.61749
C          4.81322         9.89101        -0.39656
C          4.81732        12.72235        -1.01589
C          3.57790        14.92768        -0.81199
C          3.57708        16.41844        -1.05381
C          4.81676        14.21183        -1.14416
C          4.90881        17.10095        -0.80121
C          3.69649        19.21058        -0.17318
C          4.87930        18.61066        -0.89307
C          6.20323         2.04335        -0.22427
C          6.18529         3.50040        -0.27828
C          7.43023         1.37206        -0.08207
C          7.42369         4.22070        -0.13801
C          6.15873         6.37690        -0.22187
C          6.12258         7.79978        -0.11860
C          7.39448         5.67542        -0.04950
C          7.28970         8.50741         0.17568
C          6.03623        10.68003        -0.13734
C          6.12855        12.03342        -0.74703
C          7.30498         9.96787         0.21143
C          7.37410        12.80663        -0.54036
C          6.13996        14.95188        -1.02033
C          6.10159        16.41410        -0.73173
C          7.38091        14.19890        -0.69667
C          7.35512        17.10288        -0.54071
C          6.16196        19.25691        -0.48824
C          7.35440        18.54211        -0.39808
C          8.65095         2.07472        -0.00363
C          8.64042         3.52601         0.00086
C          9.87720         1.38731         0.02626
C          9.88357         4.22115         0.12575
C          8.57892         6.37013         0.21457
C          8.52369         7.80218         0.66648
C          9.92763         5.72504         0.03168
C          9.83018         8.54634         0.43810
C          8.58649        10.68359         0.03958
C          8.57271        12.08788        -0.20440
C          9.79645         9.97153         0.18860
C          9.80464        12.81334        -0.13046
C          8.59849        14.93311        -0.52710
C          8.59105        16.39912        -0.54074
C          9.79807        14.24260        -0.29215
C          9.80365        17.11059        -0.48058
C          8.58823        19.21862        -0.19403
C          9.81448        18.52966        -0.26166
C         11.10590         2.08069         0.06867
C         11.09342         3.52803         0.17325
C         12.33092         1.39744        -0.00240
C         12.34051         4.24553         0.28995
C         10.99018         6.39232         0.95409
C         11.03507         7.87074         0.57269
C         12.36065         5.59767         0.95227
C         12.28755         8.56277         0.36052
C         11.03068        10.69612         0.15488
C         11.01130        12.10536         0.07688
C         12.27412         9.97423         0.19190
C         12.27176        12.86456         0.37982
C         11.07121        14.94810        -0.33559
C         11.10343        16.40463        -0.77184
C         12.24212        14.27725        -0.15769
C         12.31659        17.13030        -0.22387
C         11.03963        19.22343        -0.06601
C         12.28118        18.53922         0.02248
C         13.55767         2.10613        -0.02220
C         13.55672         3.54018         0.12088
C         14.77932         1.41379        -0.13688
C         14.80100         4.25180         0.07241
C         13.66618         6.44590         0.76919
C         13.51860         7.85968         0.25288
C         14.80957         5.67811         0.11214
C         14.70016         8.55502        -0.10614
C         13.50493        10.68572         0.00495
C         13.51562        12.10417         0.00516
C         14.70772         9.95102        -0.20112
C         14.74331        12.82222        -0.02260
C         13.54261        14.97500        -0.44691
C         13.52002        16.43465        -0.05927
C         14.73985        14.21416         0.03261
C         14.69235        17.09649         0.34459
C         13.48110        19.21654         0.35249
C         14.69777        18.51517         0.51993
C         16.01442         2.10053        -0.17291
C         16.01460         3.54247        -0.12694
C         17.23871         1.40670        -0.24111
C         17.24386         4.24885        -0.22925
C         15.98507         6.36078        -0.21133
C         15.92276         7.81288        -0.60840
C         17.22511         5.67194        -0.31248
C         17.22980         8.54490        -0.40989
C         15.95871        10.68464        -0.64665
C         16.00979        12.10286        -0.13286
C         17.24194         9.93302        -0.39774
C         17.19699        12.74742         0.10170
C         16.02909        14.96223         0.09991
C         15.87793        16.30703         0.83286
C         17.16583        14.13001         0.70676
C         17.18542        17.05019         0.78696
C         15.92767        19.16937         0.83659
C         17.16252        18.46642         0.87868
C         18.47598         2.09497        -0.25072
C         18.48052         3.53565        -0.27547
C         19.70217         1.39517        -0.23285
C         19.71311         4.24241        -0.30775
C         18.46358         6.40102        -0.42002
C         18.44970         7.80409        -0.44281
C         19.72182         5.68009        -0.39127
C         19.71898         8.55467        -0.73895
C         18.48000        10.66372        -0.23400
C         18.46693        12.06969         0.01751
C         19.70950         9.98286        -0.27445
C         19.67275        12.78105         0.20801
C         18.45339        14.90769         0.56767
C         18.41291        16.33798         0.70607
C         19.66166        14.22036         0.42633
C         19.64140        17.06558         0.72663
C         18.41174        19.15362         1.01940
C         19.61570        18.47623         0.95209
C         20.93514         2.08126        -0.17885
C         20.93812         3.52351        -0.21044
C         22.16376         1.38665        -0.09804
C         22.17079         4.22550        -0.11241
C         20.95255         6.36935        -0.36810
C         20.98334         7.82167        -0.38867
C         22.18055         5.65246        -0.19867
C         22.16190         8.52538        -0.27517
C         20.93176        10.67820        -0.09181
C         20.91883        12.09099         0.13525
C         22.18047         9.97175        -0.14012
C         22.15236        12.79826         0.26533
C         20.90292        14.93521         0.47667
C         20.89099        16.36100         0.59024
C         22.14272        14.22920         0.41879
C         22.10979        17.07711         0.54989
C         20.91908        19.20036         1.21300
C         22.06312        18.57863         0.38697
C         23.39490         2.07077         0.01638
C         23.39872         3.51647         0.04529
C         24.62115         1.37817         0.08947
C         24.61013         4.22342         0.22614
C         23.41449         6.34803        -0.10608
C         23.46521         7.80412        -0.48001
C         24.60560         5.65990         0.17457
C         24.67667         8.53826         0.01693
C         23.39656        10.66028         0.04423
C         23.38714        12.08854         0.23425
C         24.65310         9.93507         0.12349
C         24.61091        12.79764         0.41324
C         23.36528        14.94031         0.53408
C         23.34717        16.38368         0.58665
C         24.60620        14.22174         0.55033
C         24.55680        17.10755         0.74676
C         23.38016        19.25032         0.61669
C         24.57626        18.55053         0.73970
C         25.84955         2.06619         0.23661
C         25.84939         3.50457         0.35123
C         27.07814         1.37560         0.29506
C         27.06199         4.19036         0.56828
C         25.83369         6.39551         0.35881
C         25.86514         7.78007         0.26689
C         27.00752         5.64974         0.94001
C         27.18188         8.50604         0.20420
C         25.87392        10.66511         0.38981
C         25.85340        12.08771         0.49371
C         27.10249         9.97404         0.54609
C         27.07900        12.80276         0.63021
C         25.83284        14.91910         0.71439
C         25.79546        16.36661         0.97110
C         27.07556        14.24163         0.68782
C         27.11320        17.14303         0.95539
C         25.83143        19.25347         0.72695
C         27.06524        18.59944         0.69503
C         28.29966         2.06198         0.47126
C         28.28942         3.49678         0.63798
C         29.52982         1.36891         0.49855
C         29.52310         4.19921         0.87838
C         28.33166         6.35922         0.83511
C         28.35695         7.77086         0.80125
C         29.51431         5.61821         1.00910
C         29.57299         8.48069         0.95739
C         28.29038        10.67800         0.76604
C         28.30435        12.09423         0.74523
C         29.54178         9.96355         1.20167
C         29.56537        12.80466         0.71634
C         28.31698        14.95354         0.63016
C         28.33705        16.39649         0.60804
C         29.55244        14.23682         0.54275
C         29.48919        17.10918         0.32227
C         28.28513        19.26789         0.45708
C         29.50694        18.55911         0.32062
C         30.75728         2.05235         0.64733
C         30.76137         3.47959         0.85984
C         31.98552         1.35706         0.57337
C         32.01029         4.15525         0.97127
C         30.73652         6.34696         1.50991
C         30.79417         7.80372         1.09861
C         32.04509         5.59213         1.32371
C         32.03509         8.51203         0.95940
C         30.81916        10.66432         0.81736
C         30.78247        12.09827         0.68927
C         32.00556         9.95269         0.79332
C         32.01854        12.79211         0.39072
C         30.76525        14.93039         0.29340
C         30.71646        16.37583        -0.14861
C         31.99236        14.23785         0.20063
C         31.97592        17.13749         0.13307
C         30.73258        19.23733         0.16754
C         31.98382        18.53997         0.14127
C         33.21811         2.04146         0.58031
C         33.22280         3.47620         0.75005
C         34.44041         1.35072         0.41056
C         34.46805         4.19353         0.60036
C         33.31743         6.36284         1.04823
C         33.26299         7.82362         0.82752
C         34.49740         5.60745         0.60284
C         34.45353         8.48113         0.36007
C         33.31797        10.69558         0.83922
C         33.20544        12.09785         0.29799
C         34.48987         9.92706         0.27079
C         34.40959        12.74947        -0.32902
C         33.22259        14.93737         0.05084
C         33.25991        16.40888         0.37894
C         34.43713        14.24735        -0.13822
C         34.39624        17.13434        -0.30416
C         33.23283        19.26061         0.13619
C         34.45171        18.60722        -0.11381
C         35.67023         2.04011         0.30392
C         35.67286         3.47781         0.34182
C         36.89001         1.34979         0.10058
C         36.89404         4.18576         0.14166
C         35.67903         6.31643         0.25870
C         35.62546         7.74503         0.10194
C         36.89183         5.61422         0.04530
C         36.77703         8.39794        -0.54152
C         35.61799        10.60855        -0.12527
C         35.70583        12.08987         0.16125
C         36.73939         9.90242        -0.76077
C         36.92867        12.78075        -0.39295
C         35.66938        14.91406        -0.29127
C         35.66232        16.36557        -0.53340
C         36.91482        14.21437        -0.42001
C         36.92871        17.10124        -0.58247
C         35.68839        19.24934        -0.27735
C         36.91067        18.53393        -0.50979
C         38.10805         2.04195        -0.01395
C         38.11024         3.45878         0.03712
C         39.33726         1.33168        -0.32918
C         39.37730         4.19784         0.02435
C         38.11550         6.33592        -0.24857
C         38.08489         7.71261        -0.53264
C         39.36325         5.63754        -0.26762
C         39.30079         8.45032        -0.71590
C         38.02061        10.63790        -1.16424
C         38.07708        12.08273        -0.71440
C         39.30090         9.87185        -0.87728
C         39.31084        12.78257        -0.92072
C         38.11427        14.92929        -0.68030
C         38.12615        16.37833        -0.69704
C         39.33346        14.21182        -0.87910
C         39.36395        17.08176        -0.83647
C         38.13770        19.21387        -0.62057
C         39.35537        18.51380        -0.80096
C         40.51757         1.96667        -0.53341
C         40.66856         3.40673        -0.26634
C         41.78084         4.17801        -0.83131
C         40.56029         6.30769        -0.56221
C         40.54599         7.74299        -0.69859
C         41.75109         5.53678        -0.86383
C         41.74960         8.48608        -0.79296
C         40.50990        10.57979        -0.97967
C         40.51752        12.04498        -1.10446
C         41.73295         9.85969        -0.90532
C         41.70243        12.76256        -1.32303
C         40.56550        14.91273        -1.07599
C         40.58781        16.37321        -1.02368
C         41.72388        14.15960        -1.31880
C         41.77521        17.10982        -1.15697
C         40.58670        19.21316        -0.93773
C         41.76879        18.51436        -1.11067
O          5.52474        14.68377        -2.34193
O          5.55578        12.05386        -2.09223
O          3.00601         3.83265        -1.94380
O         32.95072         5.91296         2.43562
O         34.70544        16.71194        -1.64842
O         40.30316         3.80316         1.09305
O         12.46491         4.90618         2.20465
O         36.34884         8.98757        -1.84058
O         26.50367        16.75269         2.21759
O          6.45008        10.61133         1.26244
O         26.73393         5.65174         2.39738
H         27.54074         5.31803         2.84664
O         34.34505        12.50179        -1.76537
H         33.61021        13.03591        -2.13359
O         15.73594         7.78896        -2.07020
H         15.84505         8.71958        -2.38480
O         19.75422         8.63521        -2.22600
H         20.49284         9.23683        -2.46281
O         15.55668        16.05393         2.24871
H         15.51216        16.92627         2.69533
O         23.64175         7.79928        -1.96499
H         22.89505         7.28097        -2.33749
O         35.82208        12.28566         1.59399
H         35.09987        11.77288         2.04281
O          5.06880         5.78473        -2.26279
H          4.33513         5.23579        -2.63128
O         10.35578         6.04802        -1.33464
H          9.71144         5.64814        -1.95678
O          8.29238         7.75734         2.12313
H          9.05110         7.24270         2.50996
O          3.33106        16.57113        -2.51638
H          3.99940        15.98782        -2.95202
O          4.68407        18.93249        -2.32317
H          4.03364        18.26512        -2.66572
O         16.42814        15.27632        -1.26420
H         15.61247        15.49922        -1.77161
O         14.16962         6.67388         2.11809
H         13.74147         5.94878         2.65939
O         13.67774        15.00347        -1.94118
H         13.63568        14.07341        -2.25356
O         11.24775        16.41006        -2.23044
H         12.13114        16.00858        -2.42379
O         12.32406        13.00932         1.85053
H         11.44249        13.32094         2.14646
O         37.99619        10.76029        -2.62212
H         37.46024        10.00166        -2.95551
O         27.49703         8.50756        -1.24761
H         26.67701         8.76267        -1.72425
O         29.50158        10.07314         2.68221
H         30.04001         9.33787         3.04796
O         21.21729        19.12921         2.61225
H         21.24171        18.18620         2.87583
O         15.84467        10.74879        -2.12616
H         15.02480        11.24647        -2.33246
O         16.98423        13.87214         2.12193
H         16.54482        14.65470         2.53499
O         30.59847        16.32046        -1.62704
H         29.75996        15.85396        -1.83105
O         21.69306        18.84986        -1.00912
H         22.38228        18.45433        -1.58298
O         30.50895         6.41542         2.96849
H         31.40916         6.41536         3.37674
O         33.55173        16.51020         1.81797
H         32.80916        16.09591         2.30618
O         33.60984        10.84279         2.29610
H         32.83999        11.29932         2.70025
O         10.49409         6.32645         2.30317
H         11.09213         5.66295         2.76376
H          0.42293         1.37354        -0.11951
H          0.38443         3.81104         0.18398
H          2.54969         0.16889        -0.44695
H          0.27281         5.76761        -0.14719
H          0.21980         8.20926        -0.04249
H          0.19728        10.15712        -0.05158
H          0.23279        12.58478        -0.09739
H          0.32135        14.47766         0.15843
H          0.44990        16.91308         0.45555
H          1.69104        18.96453         0.51451
H          5.02680         0.21829        -0.22597
H          3.74039        20.27340         0.10593
H          7.44179         0.27219        -0.06729
H          6.18586        20.35484        -0.41464
H          9.87940         0.28828        -0.02243
H          8.58356        20.30716        -0.03806
H         12.33832         0.29994        -0.07478
H         11.01210        20.31014         0.10162
H         14.77234         0.31471        -0.19542
H         13.45998        20.30676         0.49723
H         17.23613         0.30652        -0.25429
H         15.93321        20.26291         0.95314
H         19.69506         0.29524        -0.21945
H         18.40569        20.24342         1.17099
H         22.15921         0.28648        -0.10506
H         20.82438        20.28186         0.94954
H         24.62425         0.27928         0.03574
H         23.40465        20.34887         0.55692
H         27.08648         0.27949         0.20189
H         25.80530        20.34700         0.60980
H         29.53654         0.27779         0.35943
H         28.28756        20.36339         0.35800
H         31.97644         0.26484         0.44285
H         30.73647        20.33746         0.16281
H         34.42898         0.25389         0.32669
H         33.21103        20.35713         0.22361
H         36.88183         0.25161         0.03679
H         35.73978        20.34514        -0.18759
H         39.26533         0.24641        -0.49630
H         38.15535        20.31285        -0.56879
H         41.39269         1.40925        -0.90021
H         42.64783         3.63357        -1.23466
H         42.62661         6.06851        -1.26193
H         42.71736         7.96964        -0.74222
H         42.69071        10.39511        -0.94321
H         42.64847        12.23406        -1.50158
H         42.68343        14.66330        -1.49752
H         42.73544        16.59604        -1.29923
H         40.58774        20.31210        -0.90639
H         42.71756        19.05900        -1.21611
