         424
 CSIRO Nanostructure Databank - Neutral Graphene Oxide Data Set
C          1.19752         3.52404        -0.60714
C         -0.00369         4.17796        -0.38633
C          1.16834         6.29946        -0.02871
C         -0.02517         5.55289        -0.11644
C          1.16028         7.72445         0.19856
C         -0.00953         8.47724         0.10578
C          1.20953        10.59885         0.35597
C         -0.00251         9.86791         0.22727
C          1.21220        12.04126         0.35273
C          0.01134        12.78292         0.20528
C          1.20473        14.88182         0.52873
C          0.00767        14.15646         0.28621
C          1.19022        16.31199         0.70187
C         -0.01424        17.05367         0.66647
C          1.17517        19.11289         1.17791
C         -0.02197        18.41260         0.92493
C          1.15347        20.58549         1.54875
C         -0.09209        21.32074         1.13008
C          1.16246        23.33162         0.50908
C         -0.07147        22.60068         0.68931
C          1.17291        24.72425         0.18831
C          0.01394        25.43342        -0.18380
C          1.17365        27.59513        -0.31694
C          0.03888        26.80858        -0.48822
C          1.19029        29.02392        -0.53951
C          0.00586        29.74773        -0.81747
C          1.21030        31.87019        -0.81375
C          0.01380        31.12686        -0.94748
C          1.22111        33.32713        -0.95419
C          0.03123        34.08569        -0.99697
C          1.26880        36.14471        -1.41768
C          0.05323        35.46382        -1.18124
C          1.31951        37.59423        -1.48919
C          3.64810         3.58808        -0.82168
C          2.42668         4.23976        -0.54291
C          3.66072         6.35758        -0.14936
C          2.41859         5.63296        -0.21858
C          3.68939         7.73772         0.20341
C          2.42269         8.40370         0.67225
C          3.66459        10.59934         0.54600
C          2.43768         9.89987         0.46382
C          3.67109        12.02394         0.61169
C          2.43728        12.74356         0.52740
C          3.65334        14.87636         0.88380
C          2.42953        14.17022         0.62648
C          3.63134        16.26668         1.07415
C          2.41039        16.99710         0.97710
C          3.65989        19.13284         1.28483
C          2.39369        18.41629         1.17605
C          3.65895        20.56179         1.19489
C          2.40916        21.29045         1.10387
C          3.70090        23.28491         0.35139
C          2.38737        22.62348         0.71152
C          3.62647        24.79524         0.37665
C          2.43113        25.45788         0.24555
C          3.67911        27.64125        -0.03699
C          2.38150        26.97044         0.34044
C          3.67845        29.02908        -0.30608
C          2.41839        29.75372        -0.45120
C          3.69071        31.93354        -0.35054
C          2.41730        31.16063        -0.59737
C          3.71208        33.31341        -0.97002
C          2.46234        34.01020        -1.11602
C          3.72743        36.04679        -1.79857
C          2.46590        35.39404        -1.43343
C          3.75077        37.59991        -1.91450
C          2.48050        38.28500        -1.62515
C          6.08560         3.63375        -1.09263
C          4.87015         4.28796        -0.79252
C          6.11480         6.38854        -0.35669
C          4.87671         5.68717        -0.44223
C          6.13206         7.76997         0.00533
C          4.89958         8.44889         0.25670
C          6.13182        10.56828         0.65104
C          4.92118         9.87941         0.52780
C          6.14644        12.00791         0.81899
C          4.90542        12.73506         0.77393
C          6.13885        14.84970         1.08323
C          4.90110        14.14242         0.93690
C          6.15001        16.26085         1.27054
C          4.85724        16.95581         1.62201
C          6.11515        19.13384         1.35630
C          4.87317        18.43987         1.36784
C          6.11112        20.56330         1.27862
C          4.88032        21.25545         1.20183
C          6.13119        23.43549         0.97067
C          4.81491        22.76330         1.26788
C          6.10549        24.78335         0.58779
C          4.88511        25.51369         0.37931
C          6.15400        27.68824         0.17826
C          4.87904        26.89890         0.10434
C          6.16516        28.91862        -0.73006
C          4.90726        29.74630        -0.53118
C          6.16152        31.85573        -0.83473
C          4.93150        31.12808        -0.65863
C          6.16923        33.23518        -0.97541
C          4.93350        33.96310        -1.14727
C          6.19034        36.06666        -1.65968
C          4.99867        35.36693        -1.53065
C          6.22756        37.51218        -1.75744
C          5.04454        38.24653        -1.73473
C          8.53455         3.66421        -1.31579
C          7.31877         4.31720        -1.02693
C          8.56890         6.38849        -0.50498
C          7.33357         5.70528        -0.63794
C          8.57436         7.73787        -0.03600
C          7.38043         8.44755         0.17508
C          8.59678        10.54095         0.71029
C          7.40209         9.85937         0.54562
C          8.62786        11.94833         1.25488
C          7.35622        12.70740         0.97395
C          8.61130        14.84351         1.12696
C          7.37225        14.12563         1.04587
C          8.59494        16.23713         1.27236
C          7.36480        16.96341         1.34744
C          8.56400        19.15959         1.46823
C          7.36206        18.42394         1.41736
C          8.56203        20.57542         1.43802
C          7.35448        21.28908         1.31159
C          8.60884        23.41739         1.08354
C          7.35317        22.72555         1.14090
C          8.63887        24.80624         0.73982
C          7.39122        25.42912         0.27553
C          8.66314        27.64064         0.10375
C          7.41269        26.88795        -0.05903
C          8.61051        29.05164        -0.08977
C          7.44006        29.68611        -0.46916
C          8.73184        31.85453        -0.83349
C          7.43665        31.09901        -0.88111
C          8.71790        33.31031        -0.85553
C          7.41795        34.06615        -0.79558
C          8.73181        36.10241        -1.36996
C          7.48708        35.29423        -1.69554
C          8.72033        37.52970        -1.55855
C          7.50386        38.19095        -1.73197
C         10.98605         3.68698        -1.53773
C          9.77221         4.34219        -1.22229
C         11.04544         6.40402        -0.71247
C          9.79625         5.71370        -0.79805
C         11.09601         7.74712        -0.23632
C          9.86632         8.35287         0.29159
C         11.14961        10.56461         0.51742
C          9.88257         9.82465         0.68436
C         11.14193        12.01007         0.72764
C          9.89549        12.72128         0.94241
C         11.09743        14.88140         0.92925
C          9.88437        14.12575         1.02617
C         11.12096        16.28797         1.01133
C          9.87477        16.95939         1.44390
C         11.12294        19.18584         1.24802
C          9.86895        18.45458         1.56368
C         11.10553        20.57887         1.30422
C          9.85055        21.30532         1.75194
C         11.04615        23.44820         1.22348
C          9.83336        22.74567         1.30992
C         11.04900        24.87758         1.11118
C          9.81355        25.55229         0.83441
C         11.04535        27.69853         0.68793
C          9.85865        26.97924         0.51993
C         11.14150        29.06417         0.05832
C          9.84243        29.84163         0.29371
C         11.11428        31.91567        -0.22440
C          9.94173        31.20418        -0.33652
C         11.14720        33.32347        -0.52945
C          9.91432        34.00410        -0.81991
C         11.17258        36.13729        -1.03716
C          9.90710        35.44600        -1.03430
C         11.17499        37.57048        -1.27498
C          9.97748        38.23239        -1.49083
C         13.43344         3.70671        -1.79634
C         12.22277         4.36157        -1.47474
C         13.48669         6.45069        -1.01651
C         12.25224         5.74426        -1.06842
C         13.51480         7.82166        -0.62046
C         12.30195         8.47005        -0.20926
C         13.60925        10.56097         0.21369
C         12.30614         9.86952         0.18245
C         13.62218        12.04713         0.46497
C         12.33263        12.71947         0.65619
C         13.56977        14.88608         0.38589
C         12.41673        14.17279         1.02719
C         13.45704        16.35483         0.04951
C         12.29693        17.03626         0.76791
C         13.53998        19.20094         0.71466
C         12.32471        18.46168         0.91159
C         13.54273        20.63087         0.90673
C         12.31303        21.32049         1.15709
C         13.50775        23.48639         1.13849
C         12.30483        22.74944         1.22124
C         13.49940        24.92171         1.19535
C         12.25173        25.59957         1.22132
C         13.49448        27.79623         1.20919
C         12.19244        27.08411         1.43598
C         13.45005        29.29784         1.31379
C         12.31402        29.91062         0.52261
C         13.47438        32.11447         0.73607
C         12.30926        31.25101         0.30055
C         13.56493        33.42123        -0.02304
C         12.36396        34.04557        -0.47051
C         13.66838        36.08192        -1.20040
C         12.36143        35.43662        -0.84280
C         13.63478        37.58704        -1.09327
C         12.44704        38.26359        -1.21736
C         15.87883         3.73564        -2.09594
C         14.66711         4.39134        -1.76144
C         15.92441         6.48434        -1.40458
C         14.69541         5.78056        -1.38941
C         15.95099         7.88110        -1.08377
C         14.75705         8.53856        -0.68127
C         15.95843        10.68009        -0.61807
C         14.79546         9.93325        -0.40499
C         15.87318        12.18882        -0.77333
C         14.78610        12.83659         0.05565
C         15.91276        14.99217        -0.42801
C         14.92659        14.26579         0.49454
C         15.95792        16.44470        -0.06138
C         14.78733        17.09056         0.20653
C         16.00014        19.23515         0.39493
C         14.77868        18.53421         0.42390
C         16.02154        20.74030         0.41965
C         14.74027        21.37440         0.86265
C         15.97097        23.52201         1.03040
C         14.75593        22.78888         1.02826
C         15.95963        24.94643         1.02868
C         14.71696        25.65174         1.13921
C         15.95730        27.81196         1.18256
C         14.70465        27.10190         1.16602
C         15.97328        29.24375         1.13038
C         14.75463        29.97893         0.99608
C         16.01340        32.04012         0.61815
C         14.77296        31.33900         0.73515
C         16.03322        33.41746         0.26545
C         14.81056        34.09384        -0.10146
C         16.08873        36.14890        -0.54837
C         14.87819        35.44027        -0.56780
C         16.09150        37.56025        -0.92868
C         14.91641        38.24635        -1.10204
C         18.33504         3.76149        -2.42082
C         17.10198         4.42071        -2.08991
C         18.36489         6.52647        -1.76912
C         17.13049         5.81327        -1.75652
C         18.39418         7.92314        -1.46487
C         17.17434         8.60766        -1.14329
C         18.42308        10.73836        -0.95909
C         17.17434        10.01649        -0.93590
C         18.43772        12.14959        -0.70026
C         17.21138        12.88915        -0.59280
C         18.47431        14.97980        -0.29387
C         17.23648        14.26533        -0.42978
C         18.49245        16.39686        -0.15322
C         17.22461        17.18246        -0.38793
C         18.47308        19.22805         0.33277
C         17.24643        18.57770         0.17040
C         18.52113        20.60521         0.87780
C         17.23932        21.32297         1.11896
C         18.50234        23.50274         0.81193
C         17.26826        22.83182         1.38213
C         18.42076        24.94733         0.55371
C         17.17532        25.66964         0.88773
C         18.41908        27.79701         1.09240
C         17.20394        27.09207         1.04253
C         18.37048        29.16771         1.72114
C         17.19362        29.95497         1.18997
C         18.47106        32.06504         0.90158
C         17.23550        31.34679         0.92309
C         18.51380        33.42295         0.51056
C         17.27687        34.11889         0.19731
C         18.55419        36.23788        -0.03692
C         17.28874        35.48954        -0.13625
C         18.61107        37.67641        -0.58392
C         17.38185        38.29219        -1.21090
C         19.52076         4.44577        -2.42086
C         20.78635         6.56376        -2.10720
C         19.56886         5.84201        -2.09943
C         20.81324         7.91289        -1.80285
C         19.62798         8.62477        -1.47868
C         20.86333        10.75519        -1.04985
C         19.63999        10.04106        -1.16698
C         20.88205        12.09537        -0.73892
C         19.67739        12.83121        -0.57022
C         20.90961        14.96035        -0.11481
C         19.69823        14.25131        -0.31353
C         20.91306        16.32742         0.06192
C         19.70884        17.07846         0.00989
C         20.91078        19.25313         0.29990
C         19.72318        18.53286         0.19090
C         20.92827        20.66021         0.48595
C         19.77867        21.37414         0.76546
C         20.93610        23.60446         0.58147
C         19.71444        22.83418         0.72085
C         20.95509        24.95912         0.51037
C         19.71532        25.73594         0.36579
C         20.91113        27.83382         1.24056
C         19.71230        27.26704         0.51540
C         20.91136        29.08853         1.71410
C         19.69001        29.92704         1.72003
C         20.98155        32.03678         0.94109
C         19.71944        31.38669         1.31531
C         20.98548        33.32500         0.50907
C         19.77378        34.09244         0.37032
C         21.02140        36.18951        -0.11710
C         19.82330        35.49367         0.07097
C         21.05784        37.48588        -0.68883
C         19.91229        38.16095        -1.02805
O          7.41780        25.91566        -1.13691
O          3.68609        36.72660        -3.09212
O          9.99378        17.61228         2.77049
O         18.92820        25.32933        -0.80288
O         18.48080        37.42320         0.83857
O          8.19422        31.28078        -2.14311
O         13.93670        11.07317         1.57321
O         19.70591        30.95031         2.75993
O         17.80797        20.59744         2.23353
O          9.97363         8.76484         1.70842
O         13.83533        35.81339        -2.65226
H         13.02381        36.13785        -3.09900
O          4.74647        16.82010         3.09080
H          4.76211        15.86128         3.29819
O          2.22226        27.26815         1.78655
H          1.41344        26.79917         2.08489
O          6.26259        28.15262         1.55758
H          5.36724        28.40926         1.86513
O          4.05383        22.88674        -1.00056
H          3.40445        23.28642        -1.61558
O         18.06391        28.92875         3.13791
H         18.30071        29.75971         3.61110
O         17.59533        38.30334        -2.63408
H         16.74013        38.48774        -3.07416
O          7.32051        34.58892         0.56865
H          7.20644        33.83368         1.18313
O         12.74141        14.13850         2.49167
H         12.04260        13.60404         2.92891
O         17.38218        23.02526         2.82687
H         17.72563        22.16974         3.18778
O          3.72984        32.17979         1.11060
H          3.55287        31.32190         1.55277
O         13.21740        32.47348         2.13310
H         13.14204        31.61680         2.62450
O          2.41779         8.21857         2.14749
H          1.61024         8.66012         2.48758
O         11.26631        28.88187        -1.38095
H         12.04733        28.31626        -1.55255
O         15.38648        14.95929        -1.79266
H         15.83697        15.68530        -2.28244
O         13.11439        16.48597        -1.38111
H         13.16122        17.43941        -1.60500
O         19.77271        27.81406        -0.84360
H         19.27447        27.17954        -1.41146
O         13.16829        29.64381         2.72511
H         12.53315        28.95425         3.05691
O          9.92368        21.34337         3.22164
H          9.96705        20.41445         3.53700
O         15.47924        12.33197        -2.18583
H         15.38180        13.30897        -2.34912
O         16.22010        21.16142        -0.98499
H         15.44739        20.84846        -1.50138
O          6.18558        28.47368        -2.10721
H          6.52793        29.20671        -2.66132
O          4.43318        23.12248         2.62799
H          5.12345        22.78194         3.23489
O          1.16754        20.61100         3.02314
H          1.34636        21.53582         3.29655
O         15.46337        14.34380         1.85319
H         14.72546        14.09852         2.46070
O          7.65373        34.82228        -3.06168
H          7.54090        35.58717        -3.66346
O          9.70988        30.08812         1.72380
H          9.67986        29.21663         2.17530
O         11.85761        27.27427         2.91122
H         12.43712        26.65984         3.41343
O          8.65158        11.76569         2.72535
H          9.24157        11.00450         2.91860
O         17.15213        17.33587        -1.87352
H         17.93878        17.85751        -2.14535
H          1.21468         2.44993        -0.84034
H         -0.95027         3.62148        -0.43258
H         -0.99487         6.04094         0.04984
H         -0.96556         7.98465        -0.12090
H         -0.95992        10.39665         0.14408
H         -0.94116        12.26677         0.03030
H         -0.94678        14.68633         0.17351
H         -0.96982        16.55414         0.46152
H         -0.98396        18.94122         0.92189
H         -1.06522        20.84324         1.31291
H         -1.02537        23.10691         0.48237
H         -0.93882        24.90038        -0.30275
H         -0.88766        27.25840        -0.87318
H         -0.95155        29.21687        -0.90878
H         -0.93424        31.64221        -1.15261
H         -0.93891        33.59196        -0.84808
H         -0.88780        36.03225        -1.15968
H          0.37886        38.14073        -1.32239
H          3.64346         2.51833        -1.07814
H          2.48740        39.38154        -1.53218
H          6.07134         2.56859        -1.36642
H          5.07930        39.33561        -1.57960
H          8.52074         2.60810        -1.62206
H          7.50052        39.28845        -1.81637
H         10.96160         2.63317        -1.85161
H          9.97827        39.32419        -1.63200
H         13.41146         2.64629        -2.08825
H         12.44632        39.36393        -1.26559
H         15.85394         2.66989        -2.36821
H         14.94616        39.33166        -1.29313
H         18.30980         2.69142        -2.67347
H         17.28273        39.36035        -0.85155
H         20.45904         3.93060        -2.67385
H         21.71930         6.04068        -2.36262
H         21.77863         8.43560        -1.82834
H         21.81980        10.23436        -1.18783
H         21.85285        12.59974        -0.64744
H         21.86765        14.42493        -0.08850
H         21.87204        16.83496         0.22871
H         21.87756        18.74939         0.17041
H         21.89543        21.17134         0.38454
H         21.89675        23.07489         0.64120
H         21.92238        25.48003         0.52915
H         21.83617        27.24334         1.29939
H         21.81211        29.49994         2.19371
H         21.92479        31.49088         1.07912
H         21.94872        33.79880         0.27745
H         21.98265        35.68564         0.04981
H         22.03676        37.90295        -0.96597
H         19.95271        39.04772        -1.67581
