         615
 CSIRO Nanostructure Databank - Neutral Graphene Oxide Data Set
C         23.05394        69.47829         2.24059
C         23.13583        70.93755         1.83212
C         21.96642        71.60171         1.45387
C         23.24050        73.59741         0.97539
C         22.01888        72.93743         1.03946
C         25.49464        65.20890         1.18815
C         25.47013        66.55406         1.50527
C         24.26858        67.33706         1.68269
C         25.55912        69.42092         1.95244
C         24.30534        68.69360         1.90816
C         25.57389        70.84573         2.15650
C         24.37387        71.62870         1.86404
C         25.67774        73.71638         1.13890
C         24.44038        72.97671         1.38859
C         28.00788        60.99320         0.45029
C         27.95933        62.41903         0.45839
C         26.73960        63.10843         0.65224
C         27.93613        65.22523         0.70162
C         26.71866        64.50093         0.87282
C         28.01177        66.60345         1.21066
C         26.74674        67.26613         1.68647
C         28.01801        69.41743         1.84761
C         26.76408        68.73037         1.80807
C         28.03140        70.75175         2.32978
C         26.78889        71.42653         2.51830
C         28.14575        74.11000         1.46315
C         26.84945        73.56303         1.82846
C         30.56410        56.81646         0.63199
C         30.56857        58.20298         0.75920
C         29.32543        58.90957         0.61076
C         30.45484        61.10591         0.78655
C         29.22761        60.30300         0.57715
C         30.45652        62.51363         0.34898
C         29.17496        63.17139         0.27894
C         30.32781        65.35672        -0.06840
C         29.11095        64.58349         0.25783
C         30.29063        66.85051         0.09484
C         29.11879        67.49459         0.75248
C         30.41253        69.60890         1.30120
C         29.22865        68.85054         1.35278
C         30.46103        70.91835         1.88071
C         29.28101        71.42217         2.43171
C         30.68844        74.02883         1.72432
C         29.31577        73.64161         2.00095
C         32.97477        52.61954        -0.40169
C         32.94759        53.97714         0.04946
C         31.79668        54.59996         0.47209
C         33.08516        56.79996         0.92868
C         31.77230        56.03054         0.84429
C         33.05268        58.27010         0.79228
C         31.82679        58.92516         0.87904
C         33.00710        61.17301         0.67062
C         31.78257        60.40529         0.96608
C         32.94082        62.51755         0.38115
C         31.66588        63.19216         0.22836
C         32.87287        65.44186         0.31251
C         31.65200        64.63849        -0.09986
C         32.83419        66.91894        -0.02105
C         31.56653        67.63345         0.04169
C         32.94499        69.66218         0.85347
C         31.61706        69.07599         0.61452
C         33.02476        71.01556         1.48198
C         31.74428        71.70578         1.95007
C         33.10699        73.87103         2.15966
C         31.76144        73.20476         1.91410
C         35.30369        48.46280        -1.84176
C         34.98865        49.59093        -1.07543
C         34.00910        50.57886        -1.24049
C         35.44097        52.59709        -0.62295
C         34.14793        51.91108        -0.69370
C         35.42935        54.07555        -0.58353
C         34.18337        54.78151        -0.14226
C         35.52173        56.89384         0.15121
C         34.38938        56.04462         0.68909
C         35.48781        58.32963         0.31250
C         34.29978        58.98373         0.63385
C         35.52300        61.20069         0.47770
C         34.31092        60.45650         0.97391
C         35.45312        62.69641         0.63301
C         34.20566        63.23926        -0.06399
C         35.34999        65.47352        -0.08484
C         34.18184        64.75067         0.03416
C         35.16741        66.86653        -0.63603
C         33.99995        67.65449        -0.11025
C         35.33552        69.81891         0.06422
C         34.05779        69.04408         0.30318
C         35.34644        71.22778         0.58966
C         34.23648        71.82439         1.15571
C         35.42711        73.95903         1.24620
C         34.28826        73.22068         1.48987
C         37.82441        44.15391        -1.76349
C         37.79434        45.57367        -2.11894
C         36.55765        46.39134        -2.04690
C         37.86044        48.35294        -1.08617
C         36.53060        47.71661        -1.70182
C         37.92622        49.86776        -1.11810
C         36.87517        50.56752        -0.58614
C         37.89960        52.72901        -1.02932
C         36.69665        51.98566        -0.70071
C         37.88570        54.17086        -0.90169
C         36.71031        54.82269        -0.51202
C         37.98129        56.99029        -0.28747
C         36.66938        56.23919        -0.27402
C         37.83923        58.48008        -0.45034
C         36.69437        59.09917        -0.02373
C         37.91124        61.30564        -0.07944
C         36.65788        60.56156         0.07230
C         37.90135        62.72667         0.15233
C         36.71315        63.42719         0.23284
C         37.88660        65.60523         0.16123
C         36.66512        64.86371         0.11360
C         37.93265        67.05167         0.26759
C         36.83981        67.81353         0.78081
C         37.79141        69.86527        -0.10680
C         36.66600        69.15031         0.39173
C         37.70254        71.30783        -0.14319
C         36.56246        71.96154         0.35681
C         37.79871        74.09389         0.56248
C         36.60834        73.36803         0.68987
C         40.14164        39.96267        -0.56955
C         40.20194        41.44720        -0.82905
C         39.04383        42.09652        -1.18806
C         40.28681        44.21109        -1.45928
C         39.02063        43.49928        -1.50544
C         40.31972        45.60073        -1.65894
C         39.08556        46.31939        -2.02706
C         40.26503        48.50190        -2.18230
C         39.03012        47.76939        -1.78763
C         40.27323        49.97627        -1.89037
C         39.08616        50.62025        -1.54716
C         40.19035        52.82672        -2.08300
C         39.04618        52.06057        -1.44735
C         40.24525        54.27834        -1.66903
C         39.08652        54.90191        -1.21403
C         40.22955        57.16443        -1.55840
C         38.99223        56.36488        -1.21449
C         40.28713        58.57704        -1.18685
C         38.96051        59.29614        -1.08296
C         40.34408        61.36438        -0.56543
C         39.07671        60.66761        -0.47835
C         40.39082        62.74563        -0.28285
C         39.20730        63.44339         0.32654
C         40.33031        65.61826        -0.19366
C         39.13692        64.91875         0.03405
C         40.30709        67.04482        -0.39836
C         39.06544        67.76453        -0.22069
C         40.16233        69.90381        -0.90896
C         39.00389        69.17539        -0.36292
C         40.18215        71.40449        -0.84821
C         38.89026        72.11613        -0.47983
C         40.20692        74.15544         0.00352
C         38.98298        73.49836         0.04422
C         42.10464        36.45295         2.22532
C         42.33619        37.49749         1.36369
C         41.22984        38.16448         0.71996
C         42.60143        40.13306         0.16406
C         41.34835        39.40171         0.14441
C         42.64009        41.49266        -0.28961
C         41.45304        42.15206        -0.74052
C         42.70947        44.27742        -0.95484
C         41.48648        43.53967        -1.06243
C         42.72122        45.69031        -1.17306
C         41.50742        46.34154        -1.46913
C         42.74786        48.58603        -1.42252
C         41.45087        47.81470        -1.47906
C         42.76825        50.01704        -1.79835
C         41.52805        50.69987        -1.91178
C         42.72041        52.83123        -1.94960
C         41.51282        52.11384        -1.95794
C         42.71160        54.29910        -2.02625
C         41.45750        55.01839        -1.85784
C         42.68263        57.17760        -1.85452
C         41.47775        56.42551        -1.76205
C         42.72977        58.55636        -1.57491
C         41.50038        59.24754        -1.21004
C         42.77653        61.36196        -0.98519
C         41.53788        60.67313        -0.94022
C         42.79128        62.74640        -0.69529
C         41.60679        63.45683        -0.38008
C         42.78476        65.63722        -0.36614
C         41.59688        64.91463        -0.27319
C         42.76315        67.07012        -0.54952
C         41.50399        67.73915        -0.61561
C         42.72947        69.95665        -0.86472
C         41.48350        69.17318        -0.95850
C         42.69347        71.39056        -0.70992
C         41.46375        72.09364        -0.61886
C         42.66698        74.17519        -0.14970
C         41.44577        73.48891        -0.30042
C         43.86723        34.62044         5.05319
C         42.86188        34.97782         4.19136
C         44.56719        36.35582         2.92380
C         43.15872        35.75635         2.98590
C         44.76433        37.57891         2.08400
C         43.68234        38.10211         1.16576
C         45.02137        40.18414         0.54639
C         43.78215        39.49366         0.61810
C         45.05195        41.56949         0.23862
C         43.86416        42.22838        -0.20910
C         45.13120        44.34957        -0.45535
C         43.90378        43.61087        -0.55343
C         45.18379        45.71932        -0.83289
C         43.96834        46.43370        -1.15773
C         45.23912        48.54516        -1.63150
C         43.98685        47.81286        -1.39581
C         45.26932        50.02302        -1.69223
C         43.99338        50.73204        -1.79350
C         45.21498        52.95636        -1.69875
C         43.95194        52.14320        -1.85976
C         45.13858        54.22053        -2.58923
C         43.87610        54.98576        -2.25869
C         45.18053        57.20760        -2.40563
C         43.87655        56.45816        -2.33719
C         45.21230        58.63071        -1.98752
C         43.98277        59.28871        -1.62637
C         45.27091        61.37718        -1.35102
C         44.01849        60.66602        -1.30716
C         45.31599        62.75804        -1.02488
C         44.08545        63.42028        -0.53706
C         45.34113        65.65617        -0.48527
C         44.06836        64.90444        -0.28760
C         45.24771        67.13509        -0.65461
C         43.94367        67.82361        -0.71779
C         45.19567        69.99319        -0.91504
C         43.93882        69.25193        -0.84489
C         45.17640        71.43696        -0.73967
C         43.92446        72.10632        -0.57413
C         45.13910        74.19749        -0.08743
C         43.91240        73.51386        -0.28953
C         45.19808        35.12651         4.95249
C         46.80473        36.76654         3.98840
C         45.53738        36.09403         4.01122
C         46.99158        37.95042         3.25954
C         45.69971        38.53968         2.78959
C         47.34503        40.42022         1.54900
C         46.36945        39.56983         0.80691
C         47.37396        41.76890         1.14054
C         46.26063        42.33427         0.42928
C         47.48756        44.47540         0.30427
C         46.29616        43.70776         0.07509
C         47.50849        45.84954        -0.06757
C         46.40352        46.44063        -0.68576
C         47.67493        48.65801        -0.86033
C         46.52150        47.81589        -1.20669
C         47.72747        49.99395        -1.34940
C         46.49693        50.69236        -1.75315
C         47.49609        52.83624        -2.57158
C         46.46595        52.15322        -2.00408
C         47.65985        54.31078        -2.82253
C         46.39727        55.04197        -2.48281
C         47.68843        57.10418        -2.34291
C         46.43907        56.41494        -2.37452
C         47.61109        58.57074        -2.70079
C         46.43051        59.30738        -2.05621
C         47.69792        61.45534        -1.87574
C         46.48643        60.71443        -1.76970
C         47.73798        62.82475        -1.48878
C         46.51760        63.49442        -1.12388
C         47.72182        65.62901        -1.17468
C         46.55160        64.91910        -0.93550
C         47.69275        67.09793        -1.34810
C         46.41223        67.85451        -1.23019
C         47.67484        70.02252        -1.17263
C         46.38951        69.32470        -1.08410
C         47.67034        71.51202        -0.88021
C         46.37817        72.15885        -0.62907
C         47.61788        74.18411         0.05902
C         46.37967        73.53600        -0.21771
C         48.20045        38.66409         3.13577
C         49.49014        40.71046         2.69873
C         48.33984        39.89670         2.43367
C         49.61432        41.99128         2.18814
C         48.53520        42.56531         1.41845
C         49.95129        44.57817         0.91114
C         48.62041        43.87082         0.92174
C         49.80756        46.08114         1.04142
C         48.61151        46.71679         0.40392
C         49.89237        48.84231         0.20971
C         48.72809        48.10214        -0.09475
C         49.99790        50.16757        -0.30078
C         48.97659        50.66833        -1.15348
C         50.16210        52.83222        -1.36151
C         49.27951        51.88384        -1.83235
C         50.17550        54.21403        -1.95161
C         48.92384        54.97590        -2.25193
C         50.16049        57.17953        -2.10463
C         48.92033        56.39155        -2.24409
C         50.20433        58.58238        -2.28357
C         48.95168        59.32483        -2.60118
C         50.27726        61.59665        -2.29237
C         48.95024        60.81998        -2.37801
C         50.25057        62.77618        -1.32265
C         48.96727        63.55118        -1.43178
C         50.20547        65.70962        -1.44391
C         48.97644        64.95288        -1.34377
C         50.15561        67.15188        -1.35183
C         48.96301        67.83014        -1.24258
C         50.15398        70.01118        -0.68925
C         48.87270        69.22996        -0.68900
C         50.11966        71.39977        -0.35656
C         48.90072        72.13301        -0.36914
C         50.08799        74.13148         0.40295
C         48.85988        73.49441         0.04247
C         50.79569        42.80283         2.44502
C         52.28322        44.76417         1.95516
C         50.96333        44.02632         1.88556
C         52.19209        46.26284         1.73635
C         51.04664        46.87198         1.20170
C         52.19119        49.04075         1.13186
C         51.03285        48.25439         0.88316
C         52.24406        50.42989         0.70426
C         51.15065        50.97711        -0.03173
C         52.36175        53.10147        -0.25466
C         51.20063        52.34065        -0.48371
C         52.37494        54.56956        -0.56868
C         51.38849        55.02297        -1.63438
C         52.59192        57.16149        -1.73769
C         51.36116        56.49684        -1.79831
C         52.64821        58.56787        -1.85343
C         51.43501        59.29868        -2.07450
C         52.70960        61.41027        -1.79916
C         51.49762        60.73054        -2.01969
C         52.73011        62.87656        -1.67509
C         51.49622        63.60996        -1.54717
C         52.70986        65.77832        -1.77644
C         51.44765        65.00950        -1.58001
C         52.71413        67.26386        -1.51668
C         51.39980        67.96760        -1.36326
C         52.58565        69.98211        -0.41875
C         51.36858        69.33897        -0.79474
C         52.53711        71.29859         0.10435
C         51.33101        72.03539         0.05287
C         52.53905        74.10502         0.70722
C         51.30204        73.43955         0.41448
C         53.31086        47.06360         2.02093
C         54.48996        49.25870         2.20306
C         53.31043        48.43432         1.75024
C         54.58348        50.62199         1.55233
C         53.41990        51.18998         0.89045
C         54.73808        53.23439         0.38208
C         53.50371        52.52205         0.36217
C         54.88355        54.44787        -0.36356
C         53.75182        55.08121        -0.88305
C         55.17641        57.07434        -1.62180
C         53.82877        56.35012        -1.60226
C         55.13249        58.54205        -1.67998
C         53.92065        59.25187        -1.75005
C         55.20251        61.37171        -1.68775
C         53.94667        60.68569        -1.73660
C         55.20087        62.82258        -1.85551
C         53.94845        63.54996        -1.68699
C         55.26172        65.70746        -1.29068
C         54.01142        65.02508        -1.73533
C         55.14286        67.08394        -0.64193
C         53.90409        67.91839        -0.93328
C         55.02599        69.84769         0.13970
C         53.82053        69.20901        -0.45352
C         54.97869        71.18350         0.81433
C         53.64118        71.89249         0.96907
C         54.95358        74.05963         1.14241
C         53.73288        73.40454         0.87166
C         55.74508        51.31728         1.65551
C         57.23024        52.95949         0.43108
C         55.90861        52.73272         1.18906
C         57.34589        54.41626         0.04549
C         56.19503        55.08331        -0.46529
C         57.54336        57.08998        -0.80903
C         56.32573        56.40219        -0.96708
C         57.68734        58.46875        -1.29559
C         56.41421        59.24468        -1.70580
C         57.67648        61.39882        -1.34542
C         56.43893        60.70771        -1.62228
C         57.68893        62.79583        -1.18064
C         56.54786        63.58942        -1.62328
C         57.80225        65.68936        -1.14076
C         56.44141        65.02423        -1.23816
C         57.71874        67.17125        -0.76607
C         56.41725        67.89899        -0.78266
C         57.56175        70.00724         0.23967
C         56.35488        69.33286        -0.30390
C         57.46563        71.32560         0.90627
C         56.23359        71.96884         0.98056
C         57.42598        74.04569         1.50160
C         56.19127        73.37287         1.24248
C         58.55492        55.08329         0.15367
C         59.89680        57.15649        -0.08046
C         58.67076        56.44941        -0.22108
C         60.01159        58.52238        -0.37166
C         58.85982        59.25959        -0.87732
C         60.19823        61.36543        -0.97862
C         58.87364        60.63354        -1.01185
C         60.11697        62.77289        -0.44957
C         58.76384        63.42519        -0.30811
C         60.04735        65.58659        -0.03604
C         58.86530        64.92330        -0.40638
C         60.04692        66.98384         0.22301
C         58.79438        67.72970         0.11721
C         59.94506        69.86421         1.03365
C         58.72949        69.15608         0.60240
C         59.91564        71.22605         1.25678
C         58.68593        71.98489         1.22128
C         59.93069        74.12559         1.84959
C         58.64476        73.37607         1.53420
C         61.22469        59.21561        -0.13129
C         62.51704        61.28936        -0.04451
C         61.33423        60.59477        -0.33452
C         62.55236        62.70889        -0.01956
C         61.28201        63.43262        -0.11494
C         62.48296        65.52599         0.44653
C         61.28413        64.84860         0.17607
C         62.48875        66.92744         0.75936
C         61.18347        67.58909         0.91344
C         62.44587        69.78038         1.37254
C         61.15608        69.06723         1.30495
C         62.43839        71.18117         1.53884
C         61.14045        71.92020         1.80956
C         62.47124        74.04136         1.70646
C         61.17158        73.37854         1.31826
C         63.73541        63.40643         0.23566
C         64.93365        65.53224         0.63667
C         63.74831        64.81720         0.43783
C         64.93831        66.94029         0.86392
C         63.67087        67.63614         0.97437
C         64.88951        69.77887         1.32479
C         63.66164        69.06359         1.24101
C         64.88581        71.18354         1.54286
C         63.64954        71.88601         1.64580
C         64.90094        74.03815         2.25428
C         63.62314        73.33827         1.84109
C         66.13130        67.66210         0.96993
C         67.34240        69.79423         1.19531
C         66.14172        69.07413         1.17043
C         67.36073        71.19964         1.39783
C         66.13426        71.90124         1.61070
C         67.37704        73.97544         1.86360
C         66.16087        73.29590         1.86950
C         68.58332        71.92536         1.40348
C         68.58386        73.29191         1.61616
O         57.16833        70.18347        -1.17031
O         46.86121        67.43667        -2.56295
O         44.22839        35.17554         2.15865
O         57.34253        58.66372        -2.69833
O         48.73289        46.57135         1.89037
O         48.60469        52.11823        -3.03762
O         44.19185        63.97500         0.84064
O         38.57328        45.90732        -3.37263
O         39.33683        72.00989        -1.87885
O         35.85164        49.83185         0.02988
O         58.26848        68.06349         1.47944
O         27.70790        66.65319         2.63788
O         53.44315        65.50753        -3.01483
O         56.04711        63.28806        -2.95128
O         31.03248        60.91193         2.12778
O         29.23411        67.46636        -0.71186
O         48.95900        60.25573        -3.74420
O         35.78937        67.23672        -1.62554
O         32.43093        56.33975         2.15573
O         45.58741        66.55778         0.66246
O         29.26359        72.67860         3.03775
O         51.31842        54.33543        -2.91360
O         31.45152        68.78958        -0.81615
O         45.26666        39.59238         3.24622
O         41.86933        48.39048        -0.22122
O         54.98553        69.92758         1.61996
O         32.68289        71.10262         2.91126
O         54.66996        56.36591        -2.80179
O         46.12805        47.91333        -2.61196
O         57.25311        67.86676        -1.97296
O         60.94513        68.03135         2.31935
O         52.11264        67.97466        -2.65102
O         39.13227        56.91131        -2.55856
O         30.99237        64.98355        -1.34155
O         40.67940        69.41271        -2.18372
O         44.77666        37.25181         0.67975
O         47.84996        70.94972        -2.25613
O         34.53834        54.79866        -1.55252
O         26.80693        72.74862         2.98592
O         44.39887        56.97539        -3.62773
O         61.06628        73.40267        -0.12852
H         61.90107        73.05117        -0.50243
O         39.44735        63.36822         1.79959
H         40.36904        63.66963         1.95662
O         53.19227        71.65421         2.33783
H         53.55169        70.77534         2.60130
O         50.30374        62.21891         0.02679
H         50.19436        62.95427         0.66536
O         46.76661        38.53929         0.26933
O         55.71528        48.53556         2.05678
H         55.88046        48.39873         1.10155
O         34.39273        60.48012         2.44127
H         34.36818        61.43107         2.70623
O         38.52974        59.53439        -2.46853
H         38.55531        58.65508        -2.92111
O         57.27771        52.14712        -0.74616
H         56.62006        52.49045        -1.38624
O         53.11786        44.22744         0.90363
H         52.61639        44.34020         0.06438
O         21.89422        68.85163         1.69128
H         21.95173        68.90061         0.71532
O         34.36371        62.93948        -1.47713
H         33.62516        63.35544        -1.96997
O         38.56128        56.78298         1.04946
H         37.86388        56.97731         1.71232
O         48.55116        69.02509         0.74028
H         49.30569        68.56399         1.16437
O         55.05939        66.77325         0.79174
H         55.07960        67.61424         1.30137
O         34.86526        55.57332         1.98323
H         34.09171        55.61245         2.59738
O         59.89433        75.43289         1.27856
H         60.04801        75.32110         0.31540
O         47.85201        54.43166        -4.27703
H         48.57426        53.80838        -4.51551
O         35.36809        69.96692        -1.39033
H         35.53944        69.07061        -1.77917
O         51.90307        55.26397         0.64841
H         52.49943        55.00395         1.38248
O         56.01458        53.57385         2.38788
H         55.25539        53.35922         2.96932
O         35.28616        63.01289         2.05821
H         36.12887        62.78297         2.50684
O         37.82798        47.90457         0.29817
H         37.04480        48.34231         0.70693
O         60.57148        61.50579        -2.39612
H         60.53733        60.61367        -2.80256
O         47.25130        58.50159        -4.11277
H         47.59640        59.32055        -4.54020
O         60.98424        71.97824         3.25524
H         60.96423        71.05777         3.59336
O         64.93085        75.38454         1.77218
H         64.97012        75.36209         0.79454
O         39.99394        39.27469        -1.83167
H         40.80366        39.43096        -2.36001
O         40.50125        48.31693        -3.61283
H         39.89614        47.61590        -3.94249
O         35.96926        67.26210         1.68728
H         36.28463        66.36673         1.93243
O         45.26971        53.43272        -0.32490
H         45.17110        52.66040         0.27023
O         50.53479        44.37897        -0.42864
H         50.48419        43.42035        -0.63250
O         58.31406        63.12450         1.08008
H         58.91694        63.59915         1.69271
O         39.88899        52.85513        -3.52298
H         39.10322        53.42752        -3.65335
O         33.06697        75.26388         1.85314
H         33.15499        75.37317         0.88424
O         32.76306        65.43588         1.78595
H         33.61860        65.73475         2.16218
O         45.04574        53.75249        -3.95552
H         45.14164        54.52973        -4.54718
O         50.49987        62.20787        -3.58254
H         50.28430        61.53637        -4.26909
O         58.27970        65.64019        -2.52285
H         57.79790        66.34457        -3.01740
H         23.28084        74.63037         0.60068
H         25.64820        74.44880         0.31740
H         28.18579        74.84254         0.64465
H         30.90325        75.10056         1.56574
H         33.26854        73.79446         3.27348
H         35.44144        75.02709         1.50986
H         37.83311        75.13935         0.90410
H         40.25699        75.20804         0.32125
H         42.65429        75.24552         0.10432
H         45.11978        75.26185         0.18998
H         47.60412        75.24363         0.35499
H         50.07164        75.19629         0.67926
H         52.54097        75.20332         0.78340
H         54.95054        75.15644         1.23705
H         57.41097        75.13067         1.68224
H         60.02046        74.24169         2.96002
H         62.48941        75.13694         1.81726
H         64.89150        74.11137         3.37940
H         67.38722        75.05672         2.06053
H         22.93152        69.44061         3.36132
H         21.01081        71.05893         1.46646
H         21.09799        73.45408         0.73533
H         24.54785        64.65199         1.11935
H         23.29332        66.82756         1.65089
H         27.06587        60.42502         0.42405
H         25.80978        62.52979         0.75708
H         29.63403        56.29766         0.35632
H         28.40971        58.31027         0.49381
H         32.01611        52.08154        -0.45393
H         30.84983        54.04000         0.50600
H         34.64539        48.20044        -2.68452
H         33.10075        50.35665        -1.82065
H         36.87434        43.60773        -1.66475
H         35.60944        45.89118        -2.30410
H         39.21742        39.72562         0.01853
H         38.10082        41.53193        -1.23676
H         41.06345        36.13712         2.39658
H         40.25199        37.65959         0.71527
H         43.62820        33.98122         5.91553
H         41.82101        34.69088         4.40111
H         45.92851        34.84432         5.72445
H         47.63183        36.35462         4.58788
H         49.08096        38.28719         3.68125
H         50.28433        40.30653         3.34485
H         51.58057        42.38090         3.09239
H         52.80121        44.54837         2.92363
H         54.20678        46.61081         2.46969
H         54.36187        49.42742         3.31198
H         56.60140        50.85075         2.16681
H         58.08799        52.65853         1.08049
H         59.43355        54.56331         0.56287
H         60.77599        56.61852         0.30304
H         62.07848        58.66247         0.28892
H         63.41566        60.72702         0.25270
H         64.68382        62.85213         0.30048
H         65.89631        65.00051         0.59903
H         67.09210        67.13527         0.86990
H         68.29491        69.26237         1.05236
H         69.52678        71.38676         1.23485
H         69.53081        73.84950         1.61388
