         470
 CSIRO Nanostructure Databank - Neutral Graphene Oxide Data Set
C         37.55252        50.04960         1.66387
C         36.34838        50.74569         1.59474
C         37.57533        52.81582         1.38232
C         36.36397        52.13703         1.46147
C         40.12936        48.50695         1.55442
C         40.05461        49.96344         1.74596
C         38.78496        50.72140         1.60177
C         40.07699        52.86223         1.25983
C         38.81111        52.13460         1.44289
C         40.08323        54.28057         1.03035
C         42.55814        48.59193         1.20346
C         41.32613        47.87038         1.42640
C         42.53474        49.96919         1.09762
C         41.35699        50.73784         1.50972
C         42.51302        52.87533         0.84824
C         41.29550        52.18197         1.20495
C         42.51289        54.32203         0.82039
C         41.24753        54.98026         0.82590
C         45.51525        46.15713         1.71067
C         44.22541        46.83023         1.71651
C         44.64752        48.57413        -0.14059
C         43.82823        47.88215         0.94134
C         44.94762        49.99815         0.25053
C         43.75889        50.73461         0.75939
C         44.78748        52.70845        -0.36408
C         43.66116        52.16840         0.46708
C         45.00531        54.46987         1.16275
C         43.73118        55.05406         0.78174
C         44.89823        56.96548        -0.19250
C         43.74934        56.28116         0.00312
C         48.12945        44.46093         1.10716
C         47.71913        45.62487         0.50196
C         46.32848        46.06575         0.62073
C         47.15717        48.48050        -0.59444
C         45.92274        47.90578        -0.47807
C         47.34378        49.95180        -0.53306
C         46.17497        50.69235        -0.25700
C         47.38714        52.81546        -0.02807
C         46.17032        52.10795        -0.14868
C         47.41562        54.26982         0.32161
C         46.20202        55.00797         0.64849
C         47.38066        57.25483         0.42927
C         46.07291        56.53763         0.64538
C         47.39205        58.65233        -0.03326
C         50.15028        44.34282        -0.26921
C         49.36851        43.85643         0.74244
C         49.84271        45.64950        -0.90523
C         48.57893        46.32582        -0.45320
C         50.00240        48.69790        -1.42855
C         48.22404        47.55308        -0.98213
C         49.86320        50.02978        -0.94859
C         48.58903        50.67833        -0.65242
C         49.86647        52.78132        -0.29682
C         48.60586        52.07932        -0.29407
C         49.94152        54.22973         0.15719
C         48.61140        54.96619         0.17881
C         49.83411        57.21881        -0.14405
C         48.65208        56.45341         0.28774
C         49.83829        58.61721        -0.18673
C         48.55840        59.30551        -0.24420
C         52.35591        41.53263        -1.52240
C         51.24581        42.20677        -1.15704
C         52.50224        44.31040        -1.27705
C         51.42590        43.57169        -0.52587
C         52.38539        45.72879        -1.59204
C         51.07588        46.45110        -1.43368
C         52.40520        48.62004        -1.09275
C         51.17686        47.93282        -1.33792
C         52.36146        50.02236        -0.87581
C         51.10481        50.71471        -0.78330
C         52.35390        52.86009        -0.73309
C         51.06700        52.12949        -0.56562
C         52.36337        54.35072        -0.73724
C         50.99405        55.04398        -0.64666
C         52.36603        57.16942         0.02584
C         51.08825        56.44666        -0.08877
C         52.38982        58.63465        -0.33799
C         51.07412        59.35550        -0.19311
C         52.34161        61.44071         0.00826
C         51.13662        60.75968        -0.13327
C         54.92612        39.99327        -1.46516
C         54.84244        41.42530        -1.33975
C         53.67373        42.16197        -1.42113
C         54.93682        44.35839        -1.61319
C         53.69527        43.62628        -1.46181
C         54.93731        45.73942        -1.56651
C         53.69185        46.51391        -1.67982
C         54.88997        48.60716        -1.11883
C         53.69186        47.94374        -1.27810
C         54.89457        49.97460        -0.47771
C         53.61200        50.75086        -0.69010
C         54.87135        52.88450        -0.46387
C         53.62903        52.12224        -0.56712
C         54.85007        54.31610        -0.31484
C         53.62966        55.05231        -0.36874
C         54.83089        57.12491         0.21138
C         53.64159        56.42847        -0.11587
C         54.75865        58.56007         0.71350
C         53.56652        59.35474         0.24917
C         54.80429        61.46729         0.57557
C         53.57543        60.74866         0.27336
C         54.84500        62.88486         0.76772
C         57.16372        39.94686        -0.43180
C         56.07618        39.32163        -1.15751
C         57.23194        41.45205        -0.40392
C         56.15802        42.12002        -1.24010
C         57.45054        44.32589        -1.15525
C         56.21000        43.59200        -1.49951
C         57.48429        45.74948        -1.55909
C         56.19212        46.51285        -1.68458
C         57.34174        48.71239        -1.42794
C         56.16753        47.97642        -1.41476
C         57.30703        50.14790        -1.15632
C         56.13796        50.78059        -0.78271
C         57.33901        52.95762        -0.45399
C         56.10763        52.21570        -0.55095
C         57.32751        54.34550        -0.16202
C         56.07142        55.03012        -0.08279
C         57.31068        57.12831         0.50189
C         56.04047        56.42228         0.22981
C         57.30607        58.63888         0.55175
C         56.02226        59.34870         0.48934
C         57.36283        61.36529         0.95600
C         56.02187        60.72818         0.61261
C         57.32514        62.90459         1.03924
C         56.00917        63.56777         0.97753
C         59.57002        37.26595         0.44615
C         58.30658        37.73527         0.28546
C         59.88318        40.32549         0.64885
C         58.00255        39.16243         0.33058
C         59.81404        41.64541         0.17951
C         58.49353        42.29078        -0.10247
C         59.85640        44.35115        -0.70489
C         58.56039        43.68322        -0.65525
C         59.95326        45.66473        -1.27262
C         58.73056        46.52015        -1.28643
C         59.90498        48.81408        -1.60216
C         58.67128        48.01780        -1.42834
C         59.88262        50.26253        -1.40113
C         58.54620        50.95580        -1.25084
C         59.82174        52.96773        -0.50453
C         58.58284        52.30561        -0.68199
C         59.81770        54.35915        -0.17084
C         58.57911        55.05452        -0.04407
C         59.80002        57.17458         0.31798
C         58.58331        56.44992         0.20455
C         59.79644        58.63533         0.28599
C         58.50117        59.30422        -0.13504
C         59.76200        61.57678         0.15237
C         58.42825        60.88728        -0.06122
C         59.81776        62.93471         0.34324
C         58.58809        63.68260         0.73535
C         59.77333        65.81049         0.34217
C         58.60540        65.14060         0.48163
C         62.20553        35.81208         1.02796
C         62.13997        37.28347         0.80173
C         60.89700        37.98423         0.22244
C         62.20432        40.14922         0.09091
C         61.00052        39.49893         0.43160
C         62.27385        41.56205        -0.01095
C         61.04870        42.29326        -0.07789
C         62.31137        44.44175        -0.33380
C         61.04839        43.68528        -0.41588
C         62.42726        45.71356        -1.04961
C         61.20405        46.12610        -1.64587
C         62.37117        48.81380        -1.32389
C         61.15208        48.29304        -1.86310
C         62.32537        50.12319        -0.85514
C         61.11952        50.90742        -0.94117
C         62.32104        52.94259        -0.23336
C         61.08184        52.25980        -0.58456
C         62.29646        54.35680         0.02097
C         61.05578        55.05951         0.03223
C         62.28302        57.15502         0.57672
C         61.02384        56.45976         0.29191
C         62.24829        58.69599         0.60270
C         60.96787        59.34380         0.28295
C         62.29342        61.52569        -0.00413
C         60.99093        60.78686        -0.06073
C         62.25954        62.98838         0.12760
C         61.07193        63.68466         0.23008
C         62.25794        65.87394         0.22212
C         61.06643        65.14740         0.27784
C         62.37965        67.28864         0.53518
C         64.66332        35.73898         0.61000
C         63.36648        35.13131         1.01358
C         64.69746        37.20575         0.33107
C         63.42791        37.98456         0.50513
C         64.74075        40.04193        -0.29803
C         63.41507        39.34011        -0.12701
C         64.74578        41.50825        -0.18349
C         63.56848        42.22236        -0.09042
C         64.85436        44.42496        -0.41438
C         63.62759        43.70256        -0.06055
C         64.85283        45.80127        -0.70764
C         63.61844        46.46909        -1.07309
C         64.89695        48.66629        -0.95446
C         63.62322        47.95729        -1.33084
C         64.82657        50.02959        -0.33316
C         63.52219        50.76709        -0.28831
C         64.77320        52.85523         0.38268
C         63.51235        52.22642        -0.13922
C         64.78471        54.34848         0.18766
C         63.55602        55.05723         0.18710
C         64.80552        57.25746         0.10246
C         63.55282        56.45900         0.34557
C         64.75884        58.66429         0.65561
C         63.51845        59.44151         0.47963
C         64.78474        61.55260         0.38977
C         63.54869        60.81130         0.32725
C         64.80182        62.99058         0.25049
C         63.53855        63.67983        -0.07370
C         64.81480        65.88172         0.09750
C         63.52637        65.18160        -0.08749
C         64.75919        67.34156        -0.26466
C         63.54457        67.97053         0.39504
C         67.19854        32.94047         0.75045
C         66.03968        33.64713         0.53564
C         67.16422        35.77203         1.13247
C         65.93476        35.01972         0.86093
C         67.21901        37.29821         0.74688
C         65.97182        37.97583         0.32457
C         67.26431        40.02190        -0.14411
C         65.99690        39.30914         0.01862
C         67.28994        41.38361        -0.25395
C         66.05273        42.18144        -0.02765
C         67.39414        44.35101        -0.47599
C         66.10490        43.68860        -0.19274
C         67.39366        45.80041        -0.52576
C         66.12746        46.52503        -0.66344
C         67.36531        48.67851        -0.53525
C         66.14943        47.91384        -0.68305
C         67.35345        50.05541        -0.32389
C         66.09617        50.79376        -0.24222
C         67.32210        52.89735        -0.04514
C         66.04834        52.14524        -0.03991
C         67.32622        54.37266         0.16681
C         66.03923        55.05254         0.48223
C         67.39118        57.26005         0.22653
C         66.10139        56.56139         0.50243
C         67.29826        58.67868         0.10705
C         66.07228        59.39091         0.56340
C         67.21702        61.56894         0.32014
C         66.00950        60.85723         0.43507
C         67.22545        63.00129         0.64984
C         65.96052        63.73705         0.45308
C         67.24786        65.94796         0.50490
C         65.97332        65.18726         0.34164
C         67.28118        67.37409         0.09852
C         66.07696        68.07129        -0.10277
C         67.33287        70.12964        -0.36444
C         66.12146        69.45352        -0.34829
C         69.62956        31.44240         1.58663
C         69.64167        32.82942         1.37807
C         68.34096        33.58770         1.49019
C         69.64551        35.71051         0.93143
C         68.44008        35.05044         1.12413
C         69.67663        37.12452         0.54896
C         68.50105        37.85750         0.34195
C         69.78896        39.92110        -0.43637
C         68.46861        39.14936        -0.48631
C         69.78851        41.39326        -0.32179
C         68.52913        42.10252        -0.75489
C         69.82969        44.25618        -0.45319
C         68.55692        43.59948        -0.50788
C         69.85235        45.72068        -0.59514
C         68.59845        46.47984        -0.57376
C         69.84398        48.62064        -0.00122
C         68.68817        47.98167        -0.76851
C         69.78333        49.99377         0.34834
C         68.57000        50.76249         0.06996
C         69.62228        52.85745         0.96052
C         68.54539        52.13122         0.25401
C         69.71165        54.34069         0.88740
C         68.57791        55.09724         0.51455
C         69.93471        57.12998         0.52211
C         68.62543        56.51206         0.35384
C         70.25431        58.42173         0.03724
C         68.34629        59.50434        -0.32700
C         69.59905        61.67137        -0.26959
C         68.39587        60.90612        -0.08037
C         69.73639        62.99044         0.12568
C         68.55559        63.71358         0.65470
C         69.81350        65.88838         0.21623
C         68.56295        65.21349         0.62565
C         69.79447        67.30067         0.04975
C         68.53855        68.04192         0.02336
C         69.82655        70.16378        -0.26933
C         68.55757        69.44774        -0.19897
C         69.87303        71.57513        -0.33737
C         72.02723        31.35941         1.35137
C         70.81182        30.70452         1.56994
C         72.05408        32.73766         1.16298
C         70.86732        33.50399         1.18023
C         72.08643        35.62003         0.74439
C         70.89261        34.95718         0.96278
C         72.12190        37.00599         0.45680
C         70.96312        37.74004         0.33132
C         72.12629        39.99757         0.54983
C         71.04499        39.18433        -0.01813
C         72.10601        41.34889         0.45485
C         70.95545        42.07967        -0.04527
C         72.17151        44.26563         0.24963
C         70.99851        43.54421        -0.14765
C         72.21229        45.62786         0.35003
C         71.14982        46.46830        -0.18126
C         72.14538        48.54689         0.78695
C         71.03561        47.89967         0.21586
C         72.08990        49.89295         1.12228
C         70.91748        50.63336         0.91596
C         72.09519        52.84145         1.54218
C         70.86397        52.06215         1.32666
C         72.07630        54.19819         1.60129
C         70.90586        54.98649         1.28719
C         72.14454        57.15396         1.57877
C         70.99599        56.41560         1.16314
C         72.28464        58.50443         1.32204
C         71.36424        59.18055         0.47157
C         72.31157        61.54901         0.68120
C         71.50052        60.58798         0.11059
C         72.18663        62.95800         0.44410
C         71.01903        63.66455         0.15753
C         72.19781        65.84116        -0.20763
C         71.00741        65.13742         0.07721
C         72.20563        67.22276        -0.30766
C         71.02214        67.98344        -0.18089
C         72.26623        70.14918        -0.35613
C         71.04708        69.43688        -0.27528
C         72.28621        71.53473        -0.42670
C         71.08174        72.25260        -0.41491
O         66.12956        43.04532         1.15858
O         58.71572        47.32487        -0.05565
O         52.44106        53.63304        -2.02000
O         44.60164        53.42214        -1.34413
O         50.11366        45.81071        -2.32708
O         62.22992        57.92135         1.84618
O         69.42996        58.91913        -0.98913
O         65.53227        58.89900         1.85290
O         64.06094        50.04271         0.92765
O         57.44940        57.87675         1.79077
O         70.75999        39.45291        -1.43299
O         48.93777        48.07217        -2.07446
O         58.77146        39.80790         1.30610
O         58.17475        63.38929         2.14164
O         64.61562        36.25971        -0.79741
O         52.95317        46.13813        -2.88393
O         67.38226        53.84323        -1.21120
O         59.22254        50.92050        -2.56351
O         69.82384        52.33420         2.32665
O         64.52493        48.50332        -2.36629
O         70.66790        61.04528        -0.94226
O         40.87842        50.42635         2.86602
O         45.81221        46.51797        -0.62600
O         62.85033        38.02391         1.85028
O         48.22555        57.01103         1.61308
O         67.10321        36.84021         2.13280
O         56.54511        42.60708        -2.56949
O         64.01239        39.46810        -1.44759
O         44.86697        50.30350         1.68752
O         56.94660        46.07678        -2.88016
O         61.24683        47.12279        -2.61130
O         66.05917        55.81237         1.74645
O         63.52894        64.42104        -1.36085
O         70.82449        46.22166        -1.58759
O         61.71283        61.08593        -1.31067
O         67.91238        65.77612         1.80811
O         57.42806        42.09759         0.88786
O         62.89188        44.38233         1.00530
O         51.68907        56.69412         1.24898
O         67.99429        63.21038         1.90543
O         58.34922        58.92878        -1.52934
H         57.80191        59.62893        -1.95837
O         43.83554        48.63940        -1.35039
H         43.78819        47.73316        -1.72273
O         45.67620        56.90051         2.01341
H         46.50368        56.90577         2.54789
O         64.87594        57.44997        -1.35260
H         64.86805        56.56861        -1.78393
O         54.94805        49.70424         0.97453
H         54.98158        50.56977         1.43523
O         68.27311        38.77263        -1.87922
H         67.41016        38.31208        -1.95494
O         64.49939        67.38294        -1.70926
H         63.88154        66.65221        -1.93060
O         68.46736        41.97117        -2.21611
H         68.68062        41.03657        -2.44130
O         52.65167        58.58973        -1.80251
H         52.64424        59.51584        -2.12744
O         50.47215        55.21814        -1.97817
H         50.94443        54.56957        -2.55613
O         51.97659        43.32835         0.81789
H         52.75140        42.73418         0.71799
O         57.96523        61.37920        -1.35033
H         58.74740        61.49525        -1.93230
O         67.96412        33.56367         2.91688
H         68.60357        34.12920         3.39963
O         64.74302        52.64081         1.84800
H         64.52621        51.68548         1.98112
O         54.66172        58.44270         2.17982
H         55.56839        58.21732         2.50128
O         57.73813        60.85159         2.24505
H         58.10208        61.60471         2.76755
O         68.99915        48.19323        -2.18380
H         69.77088        47.60925        -2.38815
O         50.39834        54.15958         1.53710
H         50.52234        55.07743         1.87119
O         45.03502        53.44528         2.05260
H         45.95749        53.16454         2.22035
O         61.08034        37.80209        -1.22052
H         60.35764        38.26614        -1.69271
H         37.53058        48.95859         1.79120
H         35.39478        50.20408         1.65769
H         37.54891        53.90727         1.27002
H         35.42006        52.69738         1.41488
H         39.20195        47.91683         1.53630
H         39.14275        54.84473         1.07034
H         41.35169        46.77334         1.35015
H         41.20813        56.07580         0.74764
H         45.85664        45.73332         2.66633
H         43.54535        46.53310         2.53191
H         44.93375        57.85840        -0.83237
H         42.82969        56.58023        -0.51968
H         47.45539        43.93502         1.79724
H         46.43368        59.17474        -0.16328
H         49.66749        42.92591         1.24418
H         48.53638        60.36726        -0.52617
H         52.28661        40.50090        -1.89713
H         50.24743        41.75119        -1.21916
H         52.32311        62.53859         0.01909
H         50.21043        61.35094        -0.16649
H         54.05969        39.43224        -1.84299
H         53.90393        63.45224         0.76086
H         56.10928        38.22831        -1.27517
H         55.97508        64.65183         1.15446
H         59.67535        36.16901         0.41809
H         57.48436        37.00831         0.17979
H         59.74893        66.90337         0.22372
H         57.65864        65.69778         0.51802
H         61.27950        35.28380         1.30122
H         61.50185        67.80934         0.94688
H         63.37155        34.06135         1.27135
H         63.57993        69.03550         0.67035
H         67.26093        31.88240         0.46047
H         65.16708        33.14137         0.09513
H         67.32361        71.21075        -0.55401
H         65.18864        70.00410        -0.53265
H         68.67482        30.93340         1.77978
H         68.94473        72.16119        -0.31697
H         72.96592        30.78849         1.33437
H         70.78804        29.61846         1.73356
H         73.02625        33.22159         1.00155
H         73.04237        35.08225         0.77334
H         73.09689        37.48585         0.29436
H         72.95618        39.49614         1.06835
H         72.96037        41.90602         0.85983
H         73.04085        43.70944         0.62221
H         73.05474        46.09018         0.88192
H         73.08141        47.99984         0.95655
H         72.97569        50.36487         1.56674
H         73.05321        52.31662         1.66233
H         73.02154        54.72293         1.79690
H         72.93019        56.64762         2.15482
H         73.16352        59.04194         1.70502
H         73.11445        61.23115         1.36392
H         73.07843        63.55286         0.69766
H         73.13790        65.29130        -0.35122
H         73.16099        67.72163        -0.51623
H         73.22306        69.61059        -0.35108
H         73.24502        72.06824        -0.48376
H         71.09415        73.35025        -0.46203
