         267
 CSIRO Nanostructure Databank - Neutral Graphene Oxide Data Set
C        -10.80039         0.64227         0.79108
C         -9.51535         1.39535         0.51686
C         -8.64474         0.65072        -0.55749
C         -7.37532         1.35997        -0.94599
C         -6.03159         0.57616        -0.80268
C         -5.05735         1.37219         0.10621
C         -3.88490         0.62396         0.76397
C         -2.49163         1.43379         0.89646
C         -1.26870         0.69834         0.32392
C          0.03121         1.45508         0.45036
C          1.33253         0.73970         0.55009
C          2.56387         1.48697         0.90241
C          3.77171         0.78100         0.96348
C          4.99936         1.46914         1.07545
C          6.25365         0.59849         1.14800
C          7.55827         1.36888         1.05118
C          8.77557         0.68122         0.53883
C         10.03846         1.39489         0.68194
C         11.24029         0.57759         0.57671
C         -9.64799         2.80949         0.07976
C         -8.39509         3.62199         0.00541
C         -7.34585         2.88771        -0.89376
C         -5.93784         3.51524        -0.96957
C         -4.96737         2.85159        -0.03122
C         -3.68772         3.58013         0.18986
C         -2.49207         2.89214         0.45490
C         -1.26894         3.60031         0.47567
C         -0.00157         2.90083         0.92461
C          1.28233         3.52950         0.33913
C          2.55494         2.88648         0.85369
C          3.77830         3.58638         0.89728
C          5.00238         2.87534         1.07548
C          6.27762         3.65572         1.35763
C          7.57076         2.85600         1.16639
C          8.79596         3.59603         0.62546
C         10.05127         2.76366         0.81030
C         -8.43156         4.68207        -1.11487
C         -7.29592         5.66230        -0.94293
C         -6.01981         5.00193        -0.70357
C         -4.91699         5.68639        -0.28276
C         -3.66299         4.98245        -0.00829
C         -2.43918         5.68290         0.02336
C         -1.21719         4.98943         0.21176
C          0.06795         5.69441         0.20236
C          1.27015         5.03680         0.38179
C          2.56744         5.68688         0.34836
C          3.75152         5.01421         0.60662
C          5.05379         5.69621         0.37205
C          6.34215         4.98981         0.63282
C          7.59129         5.79764         0.81812
C          8.84596         5.02652         1.23006
C         -7.40156         7.01322        -0.89244
C         -6.25179         7.92764        -0.50595
C         -4.99148         7.15229        -0.07597
C         -3.69619         7.90203        -0.07398
C         -2.44474         7.12599        -0.33003
C         -1.15817         7.86685        -0.43370
C          0.06789         7.17201         0.05292
C          1.35728         7.89897        -0.09928
C          2.61043         7.09450        -0.13161
C          3.88621         7.86416        -0.14136
C          5.08957         7.20440         0.49725
C          6.38746         7.83398        -0.03588
C          7.59934         7.12185         0.54928
C         -5.83705         8.89355        -1.62309
C         -4.68738         9.58467        -1.56911
C         -3.73103         9.40090        -0.39446
C         -2.36522        10.03223        -0.55592
C         -1.13906         9.36136        -0.46059
C          0.10028        10.01803        -0.53234
C          1.40067         9.27659        -0.76038
C          2.66575        10.01203        -0.32146
C          3.83674         9.35329        -0.09911
C          5.12287         9.99920         0.18246
C          6.29505         9.32504         0.23231
C        -10.98230        -0.66601         0.56683
C        -10.05258        -1.55472        -0.22817
C         -8.72528        -0.86672        -0.54190
C         -7.43872        -1.63862        -0.46964
C         -6.18226        -0.87529        -0.27605
C         -5.08233        -1.53218         0.19917
C         -3.79150        -0.79001         0.20010
C         -2.52936        -1.55898         0.29951
C         -1.23272        -0.79241         0.35646
C         -0.02302        -1.45498         0.94103
C          1.27440        -0.71639         0.93880
C          2.54239        -1.49578         0.96501
C          3.71984        -0.66143         0.62231
C          4.92612        -1.30591         0.07705
C          6.19365        -0.49662         0.08483
C          7.44276        -1.15631        -0.39448
C          8.74017        -0.59564         0.03164
C          9.94580        -1.37551        -0.19671
C         11.19371        -0.72583         0.18750
C         -9.88554        -2.95727         0.33733
C         -8.71347        -3.69609         0.25892
C         -7.49899        -3.06273        -0.09897
C         -6.24766        -3.79889        -0.17926
C         -4.97704        -3.02023         0.07051
C         -3.79056        -3.75990         0.63135
C         -2.53724        -2.96688         0.78983
C         -1.24841        -3.74691         0.67812
C          0.01552        -2.97221         1.20870
C          1.30125        -3.64176         0.65117
C          2.58132        -2.86080         0.93866
C          3.87372        -3.59272         0.70780
C          5.05223        -2.79291         0.20607
C          6.14516        -3.38266        -0.63640
C          7.37159        -2.56654        -0.93570
C          8.66455        -3.29392        -1.32310
C          9.89305        -2.65588        -0.69622
C         -8.71557        -5.17444         0.68005
C         -7.49549        -6.00459         0.26113
C         -6.22861        -5.29117        -0.05684
C         -4.92935        -6.00156         0.21268
C         -3.69801        -5.26260         0.58896
C         -2.56589        -5.92509         0.96893
C         -1.36200        -5.10689         1.41530
C         -0.02761        -5.84841         1.16287
C          1.29299        -5.11802         1.05208
C          2.56233        -5.93926         0.71707
C          3.84963        -5.08665         0.40145
C          4.95402        -5.61387        -0.49083
C          6.17771        -4.83266        -0.79711
C          7.38545        -5.53659        -1.06323
C          8.58054        -4.81041        -1.15295
C         -7.49167        -7.35922         0.30495
C         -6.23424        -8.18257         0.00851
C         -5.03536        -7.43478         0.61799
C         -3.82618        -8.14667         1.12274
C         -2.48995        -7.42318         1.39110
C         -1.27545        -8.12087         0.71023
C         -0.18116        -7.12192         0.35601
C          0.96297        -7.64303        -0.44793
C          2.32864        -6.94467        -0.42478
C          3.43771        -8.03803        -0.31282
C          4.99222        -6.75842        -1.49978
C          6.14815        -7.68534        -1.31574
C          7.34062        -7.01738        -1.16785
C         -6.25991        -9.60361         0.51880
C         -5.13719       -10.27241         0.81192
C         -3.76600        -9.65557         0.95258
C         -2.72822       -10.00010        -0.11681
C         -1.60006        -9.25273        -0.24003
C         -0.19981        -9.81251        -0.03202
C          0.83792        -9.09322        -0.97138
C          2.15203        -9.80301        -1.30495
C          3.37685        -9.20768        -1.22689
C          4.68567        -9.74665        -1.61926
C          5.89941        -9.10343        -1.56987
O          1.28308         3.24263        -1.04441
O         -8.14170        -1.39456        -1.76113
O         -0.07428        -6.78817        -1.06916
O          0.69039         7.88256         1.19754
O         -4.33236        10.09428         0.74156
H         -4.03584         9.62816         1.55548
O          0.82543         1.22101        -0.75207
O          4.23447        -8.11044         0.60587
O          4.98223        -3.23069         1.59457
O          6.32940        -2.68755        -1.94317
O         -2.26175        -7.47523         2.80057
H         -3.06174        -7.11769         3.24455
O          7.86556         2.04234         2.34379
O          3.93544        -0.83490        -0.86907
O         -5.36386        -3.37743        -1.28074
O         -5.69096         2.24633         1.08983
O          0.81219        -5.63504         2.32697
O         -1.15708        -3.99579        -0.73168
H         -0.50093        -4.70421        -0.93187
O         -3.13139        -1.26488        -1.01264
O         -1.57967        -4.94577         2.81461
H         -0.69985        -4.92432         3.25831
O          5.81072         5.06558        -0.72784
O         -8.01192         3.59653        -2.05071
O          8.83175        -3.12501        -2.76482
H          7.92487        -3.07122        -3.14729
O          0.02771         2.90446         2.34753
H         -0.82360         2.42958         2.62746
O          3.39393         7.26074        -1.37710
O         -8.72659         1.28593         1.71968
H         -8.25521         2.13744         1.88324
O          1.50054         9.07990        -2.19817
H          2.27694         8.48545        -2.35032
O         -8.72867         5.03354         1.81876
H         -8.09204         5.74638         2.07286
O         -5.40321         0.47619        -2.08243
H         -5.96422        -0.08058        -2.66260
O         -4.34577         7.57171         1.18728
O         -5.41731        -5.83488        -1.16015
O          2.36662        -6.16704        -1.62264
H          2.09888        -6.71658        -2.38843
O        -10.72523        -1.78635        -1.50164
H        -10.01641        -1.92866        -2.17142
O         -3.19797       -10.24499         2.14770
H         -2.38494        -9.74544         2.38749
O          6.70633        -0.16437        -1.22016
O         -3.38319        -3.20651         1.93594
O         -1.79837         7.33367        -1.63918
O         -6.74148         8.72362         0.59011
H         -6.02759         9.37281         0.81496
O          0.19348        -9.04450        -2.26749
H         -0.37284        -8.23635        -2.28076
O          2.83959        -6.70008         1.88845
H          3.15786        -6.10512         2.59665
O          0.09737        -3.14538         2.62616
H          0.29138        -2.26649         3.03405
O          4.98022        -5.81042         0.96945
O         -1.14333        -0.06087        -0.91090
O         -6.07807        -8.32545        -1.41999
H         -5.95475        -7.42163        -1.80050
O         -4.85979        -7.67237         2.04958
O          0.44486        -0.76484         2.15849
O          6.24338        -0.09982         2.41475
H          6.65752         0.49548         3.07890
O         -8.41527         1.03876        -1.92950
O         -0.32086        -9.19758         1.33631
O          4.43492        -6.71944        -2.58557
O         -2.18053         1.49280         2.28761
O         -5.46379         3.31149        -2.31156
H         -6.21798         3.51035        -2.91298
O         -7.84017         3.99772         1.29769
O          8.62773         3.79449        -0.80200
H          8.64994         2.92318        -1.25119
O         10.01866         5.69212         0.77944
H          9.99370         5.68753        -0.20088
O          1.32457        -3.69810        -0.79536
H          1.21717        -2.79783        -1.17010
O         -4.31764         0.34174         2.10619
H         -3.65005         0.79536         2.69981
O          5.04022         7.49913         1.91572
H          4.27998         7.02691         2.31550
O          6.22311         4.02401         2.76335
H          6.58382         3.26377         3.27478
O          6.44217         7.66279        -1.46751
H          6.32807         6.69888        -1.64998
O         -9.91786        -5.80560         0.24934
H         -9.92168        -5.83756        -0.72900
H         12.12540        -1.30348         0.09647
H         12.20948         1.05095         0.79254
H         11.01204         3.29937         0.85956
H          8.90137         4.95250         2.34666
H          8.54647         7.67852         0.63640
H          7.22703         9.87873         0.42568
H          5.11515        11.08959         0.33624
H          2.65143        11.11350        -0.31640
H          0.11199        11.11839        -0.58765
H         -2.35595        11.13035        -0.64165
H         -4.42973        10.30829        -2.35701
H         -6.53696         9.06222        -2.45612
H         -8.38241         7.49572        -1.02367
H         -9.40731         5.13337        -1.40183
H        -10.40209         3.00860        -0.70052
H        -11.57593         1.19995         1.33915
H        -11.93312        -1.13015         0.87300
H        -10.81338        -3.48531         0.60756
H         -8.74232        -5.18563         1.80648
H         -8.42643        -7.88858         0.54989
H         -7.22360       -10.13554         0.49689
H         -5.19939       -11.33348         1.09815
H         -2.72240       -11.03098        -0.50610
H         -0.08588       -10.91809         0.01927
H          2.03454       -10.76542        -1.83046
H          4.69625       -10.80113        -1.94110
H          6.78848        -9.71423        -1.80055
H          8.29900        -7.56075        -1.15650
H          9.51469        -5.36200        -1.34318
H         10.83771        -3.20938        -0.81631
