         264
 CSIRO Nanostructure Databank - Neutral Graphene Oxide Data Set
C        -10.60073         0.56786        -2.06541
C         -9.61030         1.34306        -1.34201
C         -8.57995         0.56215        -0.62150
C         -7.48319         1.30909         0.09099
C         -6.32519         0.56446         0.67642
C         -5.11014         1.33858         1.19206
C         -3.79208         0.61550         1.26529
C         -2.52890         1.38871         1.45644
C         -1.29264         0.71817         2.00059
C          0.00450         1.45287         1.83742
C          1.27895         0.64944         1.56840
C          2.53430         1.43339         1.94894
C          3.83154         0.72641         1.62259
C          4.67731         1.41543         0.57927
C          5.79845         0.70994        -0.11854
C          6.78997         1.56946        -0.93000
C          7.87633         0.77856        -1.68444
C          9.06548         1.52590        -2.19020
C         10.25572         0.72582        -2.59397
C         -9.58508         2.71687        -1.33199
C         -8.49557         3.49144        -0.75376
C         -7.21766         2.70585        -0.47732
C         -6.10284         3.51831         0.23361
C         -5.11281         2.84005         1.14916
C         -3.86007         3.62163         1.51234
C         -2.56384         2.88820         1.62117
C         -1.30155         3.63956         1.31262
C          0.01382         2.89058         1.35720
C          1.28239         3.66290         1.53331
C          2.52603         2.92613         1.92300
C          3.80740         3.64982         1.56821
C          4.59289         2.91799         0.51519
C          5.18787         3.66920        -0.64890
C          7.47190         2.74898        -0.18485
C          8.21581         3.63918        -1.14959
C          9.09780         3.00313        -1.97559
C         -8.51458         4.85513        -0.73585
C         -7.47220         5.71138        -0.05660
C         -6.15052         5.00737         0.20069
C         -5.11389         5.84404         0.90988
C         -3.91232         5.13631         1.47481
C         -2.61379         5.88501         1.80480
C         -1.32863         5.13056         1.39961
C         -0.03952         5.86190         1.72661
C          1.27161         5.14685         1.80376
C          2.57958         5.93788         1.68125
C          3.87381         5.15031         1.54890
C          5.07986         5.86025         0.94244
C          5.49840         5.57697        -0.89756
C          6.96808         5.90308        -1.14406
C          8.06916         5.10204        -1.22888
C         -7.21958         7.06964        -0.65347
C         -6.07705         7.79841        -0.32311
C         -5.01303         7.23807         0.43349
C         -3.73564         7.98108         0.54946
C         -2.55660         7.28297         1.15528
C         -1.33542         8.01777         1.68112
C         -0.04191         7.30950         1.29187
C          1.21002         8.00112         0.87255
C          2.53897         7.36043         1.17080
C          3.76020         8.00113         0.58764
C          4.94433         7.32521         0.76292
C          6.40841         8.26897        -0.77380
C          7.03261         7.33404        -1.54155
C         -5.94154         9.18849        -0.76887
C         -4.93124         9.98015        -0.37117
C         -3.80219         9.51447         0.52332
C         -2.53317        10.26957         0.13663
C         -1.28907         9.84379        -0.00001
C         -0.00613         9.76188        -0.32255
C          1.15533         9.53038         0.66611
C          2.44966        10.03388         0.07616
C          3.64584         9.36381         0.04585
C          4.71777        10.05128        -0.69249
C          5.91527         9.58769        -1.13580
C        -10.43694        -0.75414        -2.36218
C         -9.24389        -1.50774        -2.00314
C         -8.37209        -0.87880        -0.97890
C         -6.99545        -1.43247        -0.76861
C         -6.23136        -0.96457         0.48613
C         -4.78995        -1.48197         0.48967
C         -3.85947        -0.88987         1.55822
C         -2.45294        -1.52577         1.51112
C         -1.29706        -0.79138         2.14733
C          0.00557        -1.53738         2.22197
C          1.30852        -0.77027         2.16254
C          2.61469        -1.51578         2.08010
C          3.88389        -0.76958         1.68246
C          5.00322        -1.49487         0.95272
C          6.06546        -0.73794         0.21195
C          6.95492        -1.48081        -0.74036
C          7.92451        -0.71812        -1.57338
C          9.24264        -1.44456        -1.81261
C         10.26644        -0.61974        -2.56393
C         -8.95106        -2.73166        -2.52656
C         -7.58950        -3.39780        -2.44442
C         -6.63766        -2.70671        -1.46283
C         -5.44555        -3.50433        -1.00856
C         -4.49853        -2.85262        -0.03378
C         -3.65096        -3.71905         0.92306
C         -2.36270        -3.00548         1.32711
C         -1.30034        -3.74394         2.15176
C          0.02546        -3.02075         1.88756
C          1.31313        -3.77231         1.85279
C          2.62752        -3.02896         1.96887
C          3.77477        -3.72368         1.29208
C          4.76884        -2.91108         0.51243
C          5.73515        -3.59362        -0.40206
C          7.11404        -2.98886        -0.57766
C          7.91160        -3.55515        -1.74716
C          8.93053        -2.82509        -2.32956
C         -7.62016        -4.91072        -2.29095
C         -6.56550        -5.64641        -1.87082
C         -5.36457        -4.96797        -1.28769
C         -4.30143        -5.77018        -0.56489
C         -3.38045        -5.14510         0.44610
C         -2.50688        -5.98800         1.36895
C         -1.30883        -5.28976         1.97440
C          0.00484        -6.03473         2.17538
C          1.31581        -5.27218         2.07087
C          2.60481        -5.98604         1.66627
C          3.62083        -5.17013         0.89384
C          4.79325        -5.85248         0.25065
C          6.03118        -5.05714        -0.17323
C          6.73990        -5.69628        -1.35862
C          7.62989        -4.89827        -2.11287
C         -6.47563        -7.12615        -2.21294
C         -5.61164        -7.92047        -1.23921
C         -4.54620        -7.23526        -0.45643
C         -3.46349        -8.07729         0.17063
C         -2.49056        -7.48318         1.13673
C         -1.32336        -8.32108         1.73167
C          0.02630        -7.54966         1.96350
C          1.34057        -8.25528         1.66333
C          2.62911        -7.47816         1.48786
C          3.76167        -8.24434         0.77510
C          4.93161        -7.34986         0.29922
C          5.85673        -7.94620        -0.73341
C          6.59438        -7.04878        -1.62364
C         -5.46095        -9.39934        -1.40556
C         -4.33629       -10.05227        -1.06559
C         -3.08986        -9.30275        -0.63471
C         -2.00322       -10.11381         0.02644
C         -1.14360        -9.62582         0.94070
C          0.06271       -10.42148         1.40898
C          1.25451        -9.59020         1.00401
C          2.10958        -9.97456         0.04092
C          3.23109        -9.07583        -0.41201
C          4.36238        -9.86612        -1.04179
C          5.58364        -9.33637        -1.18338
O         -4.73895        -4.01181        -2.19672
O          3.62127        -5.44111        -0.53176
O          7.92161         1.18071        -3.08521
O          4.45324         0.06916         2.73901
O         -2.46223        -5.72877         2.78812
O          3.14461        -6.84867         2.70136
O          6.17726         7.93287         0.57524
O          0.85014         3.20016         0.20185
O         -6.75354         2.38336        -1.76846
O          0.51877         5.50938         3.00980
O         -5.85968        -7.51677         0.14761
O         -2.69211         7.32114        -0.28089
O          2.67112         7.05111         2.60649
O         -3.27846         3.27297         2.82552
O         -4.98580         5.62287         2.34799
O          7.71353        -3.51629         0.66023
O         -0.77598        -1.23531         3.41645
O          4.46071         0.79411        -0.73200
O          0.79357        -8.21914         2.99943
O          6.29602        -1.18076         1.56892
O         -3.70981        -8.16536         1.58463
O          6.23513        -7.79985         0.70527
O         -1.39669         8.87299         2.55351
O         -1.72430        -8.80710         2.96980
O         -2.91322         0.92536         0.13271
O         -4.02110        -1.64585        -0.71414
O         -1.40808         4.47870         0.11415
O         -0.64665         1.37059         3.12880
O         -5.46369         4.29564        -0.84972
O         -6.22651        -1.39438        -2.00016
O          4.63316         5.93398        -1.67656
O          0.63688        -3.36018         0.61210
O          3.93512         3.34809        -0.79001
O         -5.54975         2.13080         2.33607
O         -2.94810        -5.36027        -0.92793
O          2.10729        -0.99174         3.34336
O         -1.91104        -2.12179         0.28251
O          4.55121        -3.03591        -0.95649
O          0.36637         7.32646        -0.11644
O         -9.10461        -0.52049         0.22940
O          3.71727        -3.60520         2.73906
O          7.45698         2.88248         1.01946
O          2.51238         2.19873         3.17835
O         -7.47919         0.99351         1.49538
O          6.70661        -1.26182        -2.16434
O          4.35508         4.35667         2.70234
O          7.03649        -4.87357         0.90471
O          0.75083        -5.62792         3.35901
O          2.72151        -8.12184        -1.37745
H          2.34169        -8.61449        -2.13416
O         -4.37323        -1.08897         2.87524
H         -5.30440        -1.41144         2.81723
O          6.27604         5.50173         1.56739
H          6.07086         4.85035         2.28118
O         -6.85054        -1.57791         1.63649
H         -7.67045        -1.05655         1.82470
O          4.26299        -9.18346         1.72681
H          4.50417        -8.69234         2.54148
O          0.12328       -11.70544         0.81075
H         -0.49875       -12.29362         1.28359
O         -5.92607        -7.23452        -3.53680
H         -5.37282        -6.44638        -3.71889
O         -7.02799        -3.20255        -3.77507
H         -6.49948        -2.37229        -3.74468
O         -7.98461         5.99229         1.29175
H         -8.87622         6.39068         1.20638
O         -2.49259        -8.75771        -1.85586
H         -2.35215        -9.49733        -2.48340
O         -4.48415        -3.86024         2.09562
H         -3.96571        -4.34234         2.78533
O          1.33813         0.44065         0.14063
H          1.20346         1.30469        -0.31770
O          0.95236        10.21122         1.90227
H          0.10447         9.91408         2.31147
O          6.02124         2.27788        -1.92713
H          5.24092         1.72005        -2.17373
O          9.79928        -1.59496        -0.46492
H         10.55851        -2.21371        -0.50491
O         -4.11389         9.92631         1.87757
H         -3.31716         9.76112         2.43419
O         -1.66601        -3.53734         3.52419
H         -1.12556        -4.12473         4.09488
O         -2.55988         6.10050         3.21823
H         -2.94507         5.31662         3.67088
H         11.15018        -1.15635        -2.94402
H         11.09846         1.26981        -3.04772
H          9.73147         3.59570        -2.65640
H          8.98937         5.60923        -1.57067
H          7.34747         7.57611        -2.56883
H          6.49862        10.20546        -1.83597
H          4.42804        11.05652        -1.04081
H          2.41161        11.04737        -0.35246
H          0.24763         9.62985        -1.39065
H         -2.68798        11.36663         0.12397
H         -4.90771        11.03210        -0.69308
H         -6.73629         9.59009        -1.41498
H         -8.00357         7.55279        -1.25824
H         -9.42846         5.37732        -1.06762
H        -10.39427         3.27026        -1.83487
H        -11.48514         1.09846        -2.44940
H        -11.19392        -1.26531        -2.97579
H         -9.64342        -3.16568        -3.26590
H         -8.46418        -5.42932        -2.77393
H         -7.50312        -7.57645        -2.23585
H         -6.33173        -9.95765        -1.78357
H         -4.27817       -11.14624        -1.18051
H         -1.77648       -11.10091        -0.41426
H          0.02745       -10.50376         2.52879
H          1.98333       -10.96122        -0.42982
H          4.15614       -10.89105        -1.38715
H          6.40085        -9.90213        -1.65673
H          7.08489        -7.47745        -2.51118
H          8.18581        -5.35779        -2.94392
H          9.53387        -3.26859        -3.13623
