         349
 CSIRO Nanostructure Databank - Neutral Graphene Oxide Data Set
C          1.43602         4.12260        -2.93967
C          0.24126         4.82889        -2.95030
C          1.28650         6.68676        -1.76146
C          0.15606         6.08998        -2.34476
C          1.14354         7.93626        -0.94551
C          0.04730         8.88573        -1.18251
C          1.17068        10.64003         0.14532
C          0.05005        10.11986        -0.61891
C          1.13872        12.02931         0.61716
C         -0.04166        12.75925         0.73176
C          1.15016        14.84625         1.22440
C         -0.03894        14.12405         1.07383
C          1.14114        16.27385         1.58685
C         -0.01979        16.90671         1.93426
C          1.08913        19.02585         2.41064
C         -0.05043        18.29539         2.31393
C          1.07282        21.37573         2.11329
C         -0.10321        22.20105         2.09274
C          1.01238        23.80142         0.63626
C         -0.14958        23.33610         1.33413
C          1.04279        25.04525         0.02859
C         -0.15986        25.76352        -0.33647
C          1.06906        27.84207        -0.81486
C         -0.15456        27.02068        -0.85151
C          1.17866        29.08842        -1.59318
C          3.81765         3.95201        -2.29792
C          2.59581         4.69192        -2.35574
C          3.76371         6.63118        -1.30695
C          2.51819         6.00047        -1.80141
C          3.68563         7.90792        -0.52926
C          2.34593         8.49715        -0.20975
C          3.49634        10.44833         1.05756
C          2.32590         9.89596         0.26093
C          3.59743        11.96060         0.88256
C          2.38670        12.69959         0.86042
C          3.62047        14.80426         1.16691
C          2.38307        14.12264         1.05808
C          3.63967        16.20101         1.53332
C          2.41741        17.10513         1.44286
C          3.54400        19.47400         1.77899
C          2.47693        18.44276         2.29872
C          3.41286        20.83052         1.35505
C          2.20448        21.65155         1.37779
C          3.54272        23.67390         0.70817
C          2.23378        22.91035         0.52568
C          3.46662        25.18263         0.71421
C          2.39176        25.62375        -0.34487
C          3.61811        27.77880        -0.84985
C          2.35560        27.13710        -0.45998
C          3.63972        29.01153        -1.49928
C          2.38250        29.63700        -1.88624
C          6.18728         3.70701        -1.69902
C          4.98098         4.45121        -1.69120
C          6.13295         6.35256        -0.61796
C          4.98395         5.80157        -1.15654
C          6.14661         7.71664        -0.14956
C          4.83011         8.23784         0.40819
C          6.11473        10.47322         0.81211
C          4.83561         9.70652         0.85105
C          6.09196        11.95849         0.86301
C          4.83542        12.64653         0.94143
C          6.10281        14.74841         1.05697
C          4.84253        14.07289         1.07350
C          6.10630        16.18146         1.27398
C          4.88021        16.72851         1.76449
C          5.96272        19.41097         1.02592
C          4.85716        18.95618         1.76846
C          5.77543        20.74693         0.58961
C          4.60862        21.48267         0.90407
C          6.06183        23.60907         0.98175
C          4.68866        22.95259         0.78910
C          6.11148        25.09687         0.56994
C          4.82092        25.88941         0.45241
C          6.12690        27.68475        -0.92694
C          4.86332        27.16653        -0.36240
C          6.11253        28.97489        -1.57777
C          4.88742        29.62055        -1.82735
C          8.60442         3.57519        -1.43406
C          7.40575         4.24140        -1.21801
C          8.66778         6.24955        -0.11580
C          7.32189         5.46811        -0.31735
C          8.58793         7.76322        -0.29759
C          7.34026         8.43030        -0.11223
C          8.65186        10.44970         0.58450
C          7.29150         9.94539         0.00900
C          8.65103        11.97833         0.91167
C          7.29810        12.65401         0.73346
C          8.49452        14.89823         0.38793
C          7.29130        14.07066         0.78509
C          8.49171        16.26381         1.03787
C          7.19731        17.00254         1.05938
C          8.53805        19.10833         0.68423
C          7.14660        18.45821         0.56847
C          8.71818        20.37600         0.12855
C          6.84180        21.51275        -0.02868
C          8.44407        23.33201        -0.25974
C          7.12797        22.80317         0.23988
C          8.50074        24.80250        -0.48217
C          7.33809        25.66549        -0.09503
C          8.56244        27.54471        -1.21084
C          7.31419        26.98632        -0.77808
C          8.57404        28.90447        -1.70985
C          7.35769        29.57052        -1.91778
C         11.18224         3.63458        -1.41828
C          9.88374         4.29145        -1.38528
C         11.12650         6.39902        -0.60385
C          9.84466         5.73261        -0.93985
C         11.06057         7.77155        -0.27390
C          9.81743         8.45266        -0.29659
C         11.10864        10.63846        -0.09657
C          9.78395         9.96572        -0.35165
C         11.01200        12.11634        -0.18468
C          9.80566        12.78526         0.31873
C         11.05358        14.91535         0.51381
C          9.81248        14.16288         0.44236
C         11.05533        16.31423         0.93881
C          9.76482        16.99590         1.22548
C         10.93197        19.21015         1.18823
C          9.72598        18.47732         1.12979
C         10.95560        20.60460         0.94831
C          9.80782        21.23108         0.39859
C         10.93457        23.37486        -0.02953
C          9.75378        22.64193         0.01566
C         11.00426        24.75834        -0.46228
C          9.80039        25.48860        -0.64206
C         11.04705        27.40038        -1.64799
C          9.77684        26.82883        -1.07190
C         11.05021        28.90959        -1.70924
C          9.82536        29.56737        -1.89341
C         13.63113         3.66312        -1.23527
C         12.36953         4.33008        -1.16294
C         13.59221         6.43896        -0.56893
C         12.35017         5.72733        -0.77300
C         13.59295         7.80374        -0.21866
C         12.30721         8.47337         0.20535
C         13.58407        10.66072        -0.23675
C         12.28617         9.96511        -0.06932
C         13.60352        12.15869        -0.38855
C         12.30792        12.93001        -0.29388
C         13.51267        14.85757         0.80147
C         12.26842        14.26573         0.30219
C         13.50071        16.31232         1.25476
C         12.21379        17.01643         1.17203
C         13.50263        19.22506         1.40887
C         12.19842        18.47562         1.45919
C         13.51042        20.68648         1.13728
C         12.20188        21.39121         1.08142
C         13.50791        23.28518        -0.05695
C         12.18971        22.78713         0.51056
C         13.50274        24.77643        -0.29548
C         12.26425        25.43637        -0.58517
C         13.47283        27.51966        -1.07018
C         12.29104        26.80130        -1.03964
C         13.51242        28.89525        -1.54605
C         12.27778        29.57863        -1.76125
C         16.09055         3.63373        -1.08419
C         14.84266         4.33947        -1.04960
C         16.05312         6.46343        -0.61021
C         14.83121         5.75756        -0.77500
C         16.06612         7.80780        -0.24477
C         14.82607         8.52331        -0.10714
C         16.13957        10.67729        -0.26392
C         14.84311         9.93518         0.01871
C         16.12669        12.14665         0.12004
C         14.89261        12.89871        -0.14838
C         16.03408        14.91601         0.97431
C         14.82841        14.30647         0.38164
C         15.96609        16.32864         1.26881
C         14.78434        17.03526         1.24463
C         16.00403        19.28694         1.27788
C         14.75115        18.50999         0.92857
C         15.97480        20.64793         1.19151
C         14.70211        21.34488         0.98465
C         15.99490        23.40868         0.20929
C         14.70871        22.85061         0.79748
C         15.99118        24.72581        -0.20554
C         14.72291        25.43754        -0.35498
C         16.03701        27.53022        -1.04770
C         14.72314        26.88299        -0.62700
C         15.98900        28.84176        -1.74576
C         14.73045        29.52021        -1.81840
C         18.57029         3.60843        -1.00395
C         17.31552         4.28603        -0.98238
C         18.64780         6.46306        -0.64254
C         17.31965         5.76016        -0.92021
C         18.63584         7.81449        -0.07733
C         17.32194         8.44470         0.29863
C         18.50560        10.58380         0.57097
C         17.36412         9.94516         0.21999
C         18.44448        12.01335         0.95988
C         17.24263        12.80288         0.59515
C         18.49091        14.89113         1.28491
C         17.23211        14.20844         0.97614
C         18.50648        16.30728         1.38639
C         17.23459        17.03275         1.56304
C         18.53162        19.22867         1.43236
C         17.24162        18.53888         1.61446
C         18.52471        20.70525         1.42374
C         17.21371        21.51595         1.36497
C         18.51947        23.37304         0.11545
C         17.24014        22.55237         0.19080
C         18.50381        24.68874        -0.41360
C         17.23561        25.38736        -0.60893
C         18.45467        27.23321        -1.72662
C         17.22672        26.66473        -1.13584
C         18.41968        28.67530        -2.26175
C         17.14665        29.41604        -2.21416
C         19.77800         4.25758        -0.78369
C         21.03935         6.30718        -0.10193
C         19.85418         5.64372        -0.49681
C         21.04124         7.67243         0.15805
C         19.83242         8.42595         0.26690
C         20.93933        10.56186         1.29941
C         19.88357         9.95148         0.39769
C         20.91247        11.86995         1.61594
C         19.67901        12.69461         1.46678
C         20.91491        14.90370         1.45460
C         19.71291        14.17950         1.38433
C         20.92455        16.29532         1.41497
C         19.72003        17.03259         1.39161
C         20.90841        19.18868         0.87295
C         19.70895        18.50425         1.31189
C         20.93078        20.52019         0.61294
C         19.80659        21.38583         0.98866
C         20.94704        23.48991         0.29739
C         19.74701        22.77456         0.45244
C         20.94217        24.76086        -0.25619
C         19.73482        25.37506        -0.64164
C         20.89820        27.39100        -1.56819
C         19.74725        26.67654        -1.30055
C         20.86230        28.74380        -2.03051
C         19.68967        29.39801        -2.27518
O          1.39855         7.62412         0.47878
O         17.15944        17.75439         2.85759
O         11.45938        12.71576        -1.45286
O         13.64815        11.34123        -1.59568
O         12.93191        18.84221         2.68625
O          5.71121         9.80992         2.05008
O         18.36273        27.50664        -3.16622
O         20.31920        10.36686        -0.88460
O          5.06128        17.84210         2.56418
O          9.09305        16.34727         2.38116
O         15.53035        27.65765         0.32742
O          7.13360        25.78327         1.36054
O          4.02710         7.96975        -1.93675
O         18.05882         6.38234        -2.00849
O          0.99090        20.29860         2.99831
O         19.44446        21.28093         2.41842
O         13.48114        15.19372         2.21708
O         18.66704        12.19123         2.42700
O          9.71047         5.48789        -2.34831
O          4.88650        27.15141         1.15688
O         14.98750        14.05789        -1.05594
O          8.26563        23.88896        -1.62156
O          7.76110        20.79768        -0.80693
O         12.11930        22.57496         1.94766
O          1.63122        27.87978         0.56267
O          8.87278         9.70737         1.79582
H          8.55135        10.24844         2.55209
O         14.58994        23.47496         2.09304
H         15.34932        23.15731         2.63797
O          2.41918        17.58869         0.06341
H          2.32871        16.81323        -0.52988
O          2.23483        22.48367        -0.89556
H          2.89192        21.75793        -0.97882
O          6.99968        10.49526        -1.29251
H          7.73908        10.27075        -1.90614
O          6.95794         4.88404         0.98736
H          6.14560         5.33059         1.31313
O          6.88077        18.26045        -0.84734
H          7.08201        19.11216        -1.30446
O         17.20657         8.14485         1.75389
H         17.74649         8.80569         2.24048
O         11.06770        26.95468        -3.05558
H         10.27107        27.32796        -3.48997
O          4.60140         7.44267         1.60576
H          5.05028         7.91272         2.34499
O         17.07553        22.25042         2.59610
H         17.95555        22.22041         3.04655
O         13.67211        22.64988        -1.35590
H         12.97697        22.99171        -1.95714
O         17.18964        21.73257        -1.01772
H         16.97345        22.31544        -1.77598
O          8.88129        12.07642         2.35629
H          8.81295        13.02125         2.61396
O         12.27388         8.35684         1.67396
H         11.33814         8.45197         1.95929
O         14.61908        18.55474        -0.53750
H         15.45477        18.23359        -0.93757
O          9.11154         6.06947         1.25155
H          8.40431         5.55277         1.71389
O          8.31637        15.17963        -1.03686
H          8.32062        14.32778        -1.52277
O         16.26245        10.64926        -1.72530
H         15.42719        11.03188        -2.09356
O          6.33703        23.54451         2.39648
H          6.88879        24.32826         2.62357
O          3.00425        25.58106         2.01199
H          3.28286        26.51751         2.14305
O          2.81440        25.12488        -1.63486
H          2.61363        24.15294        -1.65515
O          2.80607        18.07284         3.65144
H          2.76563        18.87799         4.20856
O          9.50037        10.35304        -1.72990
H         10.34185        10.34964        -2.23485
O          3.13568        10.24597         2.45565
H          3.96678        10.33943         2.97405
H          1.49253         3.11666        -3.37913
H         -0.65536         4.38517        -3.40467
H         -0.81477         6.60305        -2.31282
H         -0.77082         8.60178        -1.86016
H         -0.79587        10.79239        -0.82044
H         -1.01160        12.26694         0.57511
H         -1.01112        14.62302         1.18326
H         -0.97193        16.36064         1.97592
H         -1.01431        18.75575         2.56832
H         -0.96344        21.89379         2.70155
H         -1.05129        23.96405         1.35017
H         -1.11216        25.21352        -0.30002
H         -1.08321        27.46961        -1.23416
H          0.25317        29.54693        -1.97336
H          3.83725         2.94163        -2.73333
H          2.43334        30.56930        -2.46800
H          6.20752         2.74563        -2.23494
H          4.88870        30.60470        -2.31814
H          8.58532         2.57462        -1.89536
H          7.36530        30.59078        -2.32874
H         11.21889         2.54852        -1.58905
H          9.82102        30.64782        -2.10363
H         13.64695         2.58678        -1.46417
H         12.29930        30.65852        -1.97264
H         16.07048         2.53988        -1.20962
H         14.72010        30.54324        -2.22353
H         18.56931         2.51850        -1.15379
H         17.12155        30.43882        -2.62027
H         20.70588         3.66709        -0.76724
H         21.98105         5.74005        -0.06053
H         22.00017         8.17574         0.34813
H         21.86036         9.98506         1.47944
H         21.76417        12.32026         2.15013
H         21.86994        14.36516         1.52590
H         21.89139        16.81440         1.45590
H         21.78833        18.58729         0.60728
H         21.80044        20.96535         0.10900
H         21.89841        23.03430         0.60332
H         21.89770        25.28306        -0.39356
H         21.88293        26.97110        -1.32178
H         21.81329        29.29203        -2.08980
H         19.67862        30.48363        -2.45046
