         640
 CSIRO Nanostructure Databank - Neutral Graphene Oxide Data Set
C         22.99524        27.36634         0.12293
C         22.98774        28.73261         0.11875
C         23.05032        31.64369         0.32494
C         23.05824        33.00672         0.34415
C         23.04767        35.92147         0.36496
C         23.04997        37.29678         0.48948
C         23.06882        40.19228         0.87585
C         23.07441        41.56377         1.04481
C         23.08449        44.49212         1.34293
C         23.05390        45.89802         1.31618
C         25.45308        24.53591         0.20647
C         24.25871        25.22819         0.24120
C         25.44077        27.31109        -0.21831
C         24.23844        26.62685         0.02549
C         25.37909        28.75240        -0.64718
C         24.18803        29.49328        -0.09217
C         25.46412        31.61472        -0.24916
C         24.22849        30.88768         0.00310
C         25.45787        33.05720        -0.16163
C         24.26085        33.75369         0.10658
C         25.47644        35.91802         0.12379
C         24.25083        35.19356         0.19531
C         25.47747        37.34155         0.25569
C         24.25490        38.04085         0.45497
C         25.48954        40.20235         0.54112
C         24.26165        39.47761         0.62236
C         25.49680        41.62072         0.70939
C         24.27182        42.31414         0.97115
C         25.53458        44.46398         1.08560
C         24.25569        43.74639         1.15764
C         25.50569        45.96550         0.99643
C         24.20232        46.66100         1.05943
C         25.44488        48.76699         0.86038
C         24.23078        48.06857         0.98846
C         27.97985        23.07949         0.10580
C         27.94107        24.49320        -0.01338
C         26.68312        25.20708        -0.01098
C         27.91367        27.33443        -0.40856
C         26.67825        26.61565        -0.21483
C         27.88699        28.76339        -0.56796
C         26.69005        29.48567        -0.52624
C         27.89615        31.67918        -0.91274
C         26.65806        30.91416        -0.50416
C         27.91580        33.11081        -0.44884
C         26.70109        33.79200        -0.24955
C         27.93406        35.93092        -0.10223
C         26.70543        35.21370        -0.06469
C         27.93577        37.36100         0.01069
C         26.71288        38.06566         0.18383
C         27.94179        40.20312         0.19928
C         26.71391        39.49054         0.29764
C         27.94074        41.61938         0.35186
C         26.74798        42.33666         0.59327
C         27.92370        44.52979         0.41187
C         26.76236        43.76683         0.66142
C         27.91810        45.93998         0.26402
C         26.59797        46.66525         0.21991
C         27.91553        48.80536         0.45574
C         26.66090        48.12608         0.59248
C         28.03887        50.19117         0.75077
C         30.41732        23.07452         0.23579
C         29.17134        22.39663         0.22661
C         30.41378        24.50367        -0.01262
C         29.16195        25.21169        -0.12239
C         30.40087        27.35109        -0.35888
C         29.14817        26.63125        -0.32913
C         30.41811        28.75170        -0.49588
C         29.17372        29.46707        -0.94787
C         30.37010        31.63203        -0.48776
C         29.17871        30.94167        -0.64458
C         30.39027        33.08263        -0.41737
C         29.15306        33.80145        -0.37559
C         30.40471        35.93085        -0.24305
C         29.16312        35.22322        -0.22926
C         30.40615        37.36130        -0.19231
C         29.17213        38.07488        -0.05679
C         30.41777        40.20030        -0.11553
C         29.17710        39.49386         0.02066
C         30.44083        41.62379        -0.10074
C         29.22418        42.32733         0.35293
C         30.38640        44.56216        -0.17017
C         29.22255        43.84259         0.35718
C         30.34997        45.94326        -0.29034
C         29.10357        46.66305        -0.01682
C         30.25182        48.86184        -0.39375
C         29.06935        48.08827         0.00841
C         30.36676        50.26298         0.01341
C         29.23615        50.87094         0.59731
C         32.75031        20.37871         1.41622
C         31.62253        21.00273         0.98634
C         32.87044        23.07996         0.55880
C         31.62429        22.38563         0.57325
C         32.92773        24.42029        -0.14221
C         31.62677        25.20587        -0.10480
C         32.85961        27.36509        -0.24273
C         31.64084        26.62885        -0.23465
C         32.86555        28.77022        -0.26413
C         31.62691        29.48542        -0.38893
C         32.84913        31.63719        -0.32901
C         31.62705        30.91540        -0.40681
C         32.86063        33.06656        -0.32844
C         31.61863        33.78246        -0.35277
C         32.87453        35.93048        -0.32047
C         31.63141        35.21776        -0.30813
C         32.87210        37.35960        -0.36428
C         31.63409        38.06723        -0.29286
C         32.85583        40.21749        -0.47735
C         31.63563        39.49664        -0.30358
C         32.83559        41.64037        -0.56423
C         31.60436        42.33286        -0.39021
C         32.85649        44.51963        -0.66592
C         31.53880        43.79367        -0.76118
C         32.81971        45.95862        -0.64573
C         31.58748        46.64299        -0.57187
C         32.84314        48.83442        -0.58236
C         31.57487        48.10032        -0.70709
C         32.83445        50.25272        -0.37357
C         31.61539        50.95174        -0.12441
C         32.85803        53.02830         0.21894
C         31.66632        52.36236         0.09649
C         35.43493        18.84786         1.62970
C         35.35273        20.32576         1.58177
C         34.02757        21.09689         1.49952
C         35.33244        23.17616         0.89754
C         34.06021        22.47759         0.96941
C         35.35892        24.55675         0.58529
C         34.04957        25.29405         0.45137
C         35.37064        27.40814         0.09464
C         34.16321        26.61298        -0.31600
C         35.34703        28.81898        -0.02148
C         34.10309        29.51073        -0.19834
C         35.32332        31.65686        -0.18276
C         34.09087        30.92317        -0.24370
C         35.31532        33.07616        -0.18953
C         34.10022        33.78208        -0.26077
C         35.34215        35.95363        -0.32580
C         34.11068        35.22979        -0.29020
C         35.33615        37.37573        -0.47238
C         34.09704        38.07819        -0.47530
C         35.30051        40.22391        -0.79050
C         34.09056        39.50764        -0.58166
C         35.25070        41.63904        -0.94274
C         34.05215        42.36056        -0.80026
C         35.29905        44.54379        -1.01591
C         34.04781        43.81936        -0.83269
C         35.28460        45.99114        -0.97443
C         34.05500        46.69364        -0.78089
C         35.30122        48.89267        -1.01196
C         34.04450        48.11619        -0.70041
C         35.31979        50.27540        -0.42049
C         34.08896        50.95655        -0.23399
C         35.34586        53.00771         0.35838
C         34.09856        52.33561         0.12489
C         35.38723        54.36214         0.79094
C         37.66199        18.89349         0.50753
C         36.52819        18.18292         1.21604
C         37.74945        20.33174         0.98221
C         36.59483        21.03975         1.21037
C         37.78309        23.19325         0.96744
C         36.57140        22.49290         1.10573
C         37.79513        24.57624         0.71249
C         36.56770        25.27394         0.54965
C         37.77814        27.45500         0.46669
C         36.56323        26.72295         0.36377
C         37.80306        28.82895         0.18429
C         36.57523        29.54461         0.00373
C         37.78935        31.68182        -0.39145
C         36.56332        30.95837        -0.13430
C         37.80218        33.05690        -0.45526
C         36.60995        33.80369         0.08540
C         37.80144        35.97103        -0.36164
C         36.59873        35.26993        -0.27347
C         37.81233        37.41285        -0.47101
C         36.56631        38.10127        -0.56468
C         37.79887        40.19842        -0.86508
C         36.56333        39.51565        -0.76515
C         37.80752        41.62175        -1.24464
C         36.47826        42.36431        -1.30541
C         37.76748        44.50481        -1.47406
C         36.47922        43.83230        -1.23895
C         37.77743        46.00632        -1.31443
C         36.51741        46.72198        -1.01426
C         37.82132        48.82153        -0.75138
C         36.57039        48.10634        -0.82220
C         37.79732        50.24747        -0.46101
C         36.55119        50.93317        -0.23041
C         37.81343        52.98749         0.39081
C         36.57167        52.31034         0.17615
C         37.82203        54.32656         0.87744
C         36.58126        54.99087         1.06087
C         40.14973        16.03959         0.03380
C         38.97618        16.74043         0.23018
C         40.20900        18.81846         0.40311
C         38.98537        18.14155         0.44640
C         40.29427        20.25485         0.75720
C         39.05851        21.00478         1.11648
C         40.18965        23.12030         0.31054
C         39.11513        22.52884         1.24934
C         40.26384        24.61817         0.51747
C         39.06532        25.28436         0.66817
C         40.33569        27.49812         0.64574
C         39.02810        26.74870         0.79312
C         40.27100        28.90021         0.19698
C         39.06439        29.52388         0.01863
C         40.30531        31.58895        -0.88178
C         39.01415        30.87934        -0.59119
C         40.28928        33.06651        -1.10477
C         38.98649        33.81591        -0.88994
C         40.25579        35.93432        -0.62501
C         39.06514        35.26581        -0.56747
C         40.30840        37.36715        -0.14313
C         39.03614        38.12682        -0.47872
C         40.28637        40.28961        -0.70754
C         39.04161        39.53114        -0.67274
C         40.30838        41.66260        -0.91872
C         39.06426        42.39901        -1.12326
C         40.32560        44.46428        -1.68881
C         39.04194        43.76071        -1.29476
C         40.28328        46.00218        -1.54313
C         39.07414        46.63156        -0.85863
C         40.28995        48.86008        -0.93678
C         39.04736        48.14353        -0.86506
C         40.23374        50.33932        -0.86061
C         39.00138        50.97068        -0.36381
C         40.29442        52.99314         0.32026
C         39.04333        52.32075         0.08639
C         40.29499        54.29088         0.94034
C         39.07384        54.96795         1.19969
C         40.30372        56.84563         2.16034
C         39.11222        56.25798         1.80331
C         42.61749        16.01287        -0.23203
C         41.40143        16.71076         0.00259
C         42.69051        18.82406         0.11926
C         41.43443        18.12345         0.18750
C         42.72146        20.27374         0.21408
C         41.53612        21.00315         0.43861
C         42.73234        23.13658         0.23831
C         41.52220        22.41133         0.39706
C         42.74206        24.57622         0.21003
C         41.52482        25.31900         0.38448
C         42.77520        27.43380         0.08983
C         41.56231        26.72598         0.37435
C         42.79620        28.84901        -0.02678
C         41.56470        29.66297         0.26848
C         42.75272        31.68780        -0.52415
C         41.56989        30.98496        -0.43970
C         42.74713        33.12748        -0.77885
C         41.55577        33.80063        -0.96077
C         42.77927        35.98555        -0.86275
C         41.49737        35.28305        -1.21546
C         42.73615        37.43088        -0.78551
C         41.57149        38.10463        -0.52753
C         42.82955        40.29979        -0.65990
C         41.55833        39.58989        -0.25700
C         42.80822        41.73511        -0.71691
C         41.56384        42.41338        -0.90014
C         42.77761        44.53355        -1.02497
C         41.57139        43.80822        -1.12156
C         42.76598        46.03570        -0.88189
C         41.55034        46.76739        -1.40447
C         42.74858        49.01633        -1.48620
C         41.50893        48.22270        -1.08339
C         42.81040        50.35700        -0.79503
C         41.55354        51.10319        -0.70434
C         42.77932        52.95515         0.40252
C         41.53200        52.37395         0.02354
C         42.77805        54.23655         1.05662
C         41.53683        54.90062         1.30095
C         42.77135        56.76693         2.31768
C         41.53742        56.18007         1.92796
C         43.81389        16.69918        -0.30223
C         45.18608        18.80959        -0.36951
C         43.87012        18.10269        -0.12670
C         45.17402        20.28154        -0.04382
C         43.95655        20.98669         0.07637
C         45.19615        23.12527         0.02796
C         43.96145        22.41931         0.13024
C         45.20595        24.55071        -0.01000
C         43.97371        25.27257         0.05450
C         45.22194        27.40187        -0.21779
C         43.99172        26.70043        -0.03659
C         45.22975        28.82071        -0.34220
C         43.99993        29.54491        -0.25765
C         45.21848        31.68509        -0.52499
C         44.00718        30.98217        -0.38980
C         45.21231        33.13200        -0.60445
C         44.00412        33.84477        -0.72638
C         45.24909        36.00682        -0.66005
C         43.98321        35.28852        -0.76786
C         45.26836        37.41291        -0.76039
C         44.00896        38.15001        -1.16125
C         45.27973        40.30495        -0.79063
C         44.02003        39.61280        -0.80458
C         45.28068        41.72878        -0.67618
C         44.03370        42.45230        -0.73312
C         45.24611        44.63416        -0.65266
C         44.01262        43.88028        -0.79966
C         45.31193        46.01371        -0.83207
C         44.06882        46.71472        -1.24211
C         45.29832        48.93487        -1.01046
C         44.05299        48.21192        -1.36031
C         45.26695        50.27971        -0.69860
C         44.00520        50.97493        -0.48061
C         45.25078        52.93138         0.46392
C         44.00771        52.30096         0.11267
C         45.24763        54.17941         1.16112
C         43.99868        54.84367         1.45005
C         43.96181        56.11568         2.09102
C         47.55055        18.81959         0.39395
C         46.39036        18.13874         0.24357
C         47.63817        20.24853         0.15737
C         46.41170        20.97400         0.02279
C         47.67114        23.09951        -0.01857
C         46.42659        22.40427         0.00514
C         47.67999        24.54284        -0.13625
C         46.44618        25.25401        -0.11874
C         47.68207        27.37704        -0.39489
C         46.45243        26.67585        -0.23937
C         47.66501        28.78531        -0.59130
C         46.46072        29.52269        -0.53801
C         47.67252        31.69807        -0.61868
C         46.45931        30.96942        -0.59312
C         47.67471        33.10546        -0.48285
C         46.46413        33.83661        -0.51937
C         47.71185        35.98848        -0.56968
C         46.46549        35.27667        -0.53480
C         47.70858        37.40922        -0.69454
C         46.49986        38.12506        -0.75753
C         47.73888        40.29852        -0.66665
C         46.50943        39.58862        -0.77901
C         47.73576        41.72597        -0.52082
C         46.50311        42.41996        -0.51775
C         47.77560        44.62694        -0.24938
C         46.46859        43.88004        -0.29629
C         47.78949        46.07588        -0.55160
C         46.54073        46.77281        -0.79758
C         47.76775        48.92773        -0.85910
C         46.53772        48.18326        -0.94784
C         47.79472        50.30436        -0.64340
C         46.52084        51.11065        -0.76447
C         47.70912        52.95959         0.43086
C         46.49410        52.33537         0.11288
C         47.68494        54.16018         1.18618
C         46.48861        54.75202         1.53374
C         50.13797        20.26641         0.26918
C         48.87030        20.95784         0.19451
C         50.15855        23.15084         0.28709
C         48.87632        22.37139         0.08810
C         50.15538        24.43841        -0.53683
C         48.90098        25.24968        -0.29818
C         50.18273        27.36924        -0.54599
C         48.92000        26.64813        -0.41162
C         50.19654        28.73271        -0.74577
C         48.92856        29.46728        -0.90318
C         50.23234        31.67831        -0.65636
C         48.94042        30.98419        -0.87514
C         50.23225        33.07329        -0.45969
C         48.95422        33.81962        -0.12224
C         50.17037        35.99806        -0.44493
C         48.94457        35.27784        -0.51721
C         50.20529        37.38559        -0.43483
C         49.00878        38.12463        -0.96717
C         50.20181        40.28158        -0.56642
C         48.99326        39.59899        -0.65665
C         50.22270        41.72674        -0.52089
C         48.99043        42.44146        -0.45914
C         50.25126        44.55054        -0.47554
C         49.02940        43.86176        -0.41990
C         50.26641        46.00960        -0.46009
C         49.00436        46.72836        -0.57155
C         50.32832        48.91523        -0.82344
C         49.03701        48.17130        -0.89687
C         50.35578        50.44548        -0.83556
C         49.01362        51.03516        -0.42710
C         50.20963        53.09003         0.16371
C         48.97754        52.35403         0.02333
C         51.33467        20.92396         0.16111
C         52.62482        23.03243        -0.11535
C         51.41858        22.34685         0.04739
C         52.64020        24.48889        -0.18056
C         51.43353        25.21652        -0.32792
C         52.67384        27.31730        -0.41328
C         51.43578        26.61697        -0.43818
C         52.70515        28.76648        -0.61949
C         51.46538        29.47759        -1.12247
C         52.66529        31.66993        -0.64791
C         51.44855        30.96442        -0.75147
C         52.69238        33.08172        -0.52809
C         51.45380        33.76885        -0.45775
C         52.74004        35.98161        -0.52044
C         51.43832        35.23810        -0.56842
C         52.72946        37.41592        -0.19957
C         51.42226        38.12619         0.05557
C         52.65743        40.23594        -0.31368
C         51.46813        39.57584        -0.37450
C         52.74974        41.67499        -0.76144
C         51.45488        42.42088        -0.52066
C         52.74412        44.52209        -0.34312
C         51.48510        43.83005        -0.48586
C         52.80920        46.02769        -0.45088
C         51.45833        46.69105        -0.37690
C         52.68341        48.88419         0.22907
C         51.44806        48.15999        -0.17793
C         52.71562        50.36395         0.13709
C         51.54797        51.06878        -0.12620
C         51.43482        52.48348         0.09495
C         55.07916        23.02489        -0.17612
C         53.89158        22.35353        -0.20856
C         55.14121        24.45717        -0.03004
C         53.87585        25.18581        -0.12931
C         55.19564        27.30145        -0.31182
C         53.86816        26.59277        -0.23799
C         55.07480        28.76746         0.04789
C         53.86524        29.46199        -0.45203
C         55.22446        31.65694        -0.40423
C         53.94004        30.92022        -0.69460
C         55.18348        33.11539        -0.22290
C         53.95868        33.80944        -0.38026
C         55.18074        35.93747        -0.05710
C         53.97732        35.22172        -0.29155
C         55.17381        37.36880        -0.01180
C         53.91606        38.07562        -0.03534
C         55.16909        40.21657        -0.30432
C         53.89566        39.56111         0.24406
C         55.15320        41.70104        -0.03905
C         53.97107        42.39111        -0.22402
C         55.14903        44.53720         0.24801
C         53.92396        43.82470        -0.09431
C         55.13111        45.91738         0.48171
C         53.79906        46.62644         0.57452
C         55.10661        48.79873         0.71054
C         53.92089        48.12514         0.43325
C         55.09341        50.25231         0.73021
C         53.96925        50.98432         0.48086
C         57.61101        24.46586         0.39658
C         56.34225        25.12595         0.19285
C         57.59038        27.35496         0.32565
C         56.28524        26.60414         0.51499
C         57.61283        28.72727         0.35415
C         56.34563        29.50124         0.32215
C         57.61798        31.61910         0.26212
C         56.42330        30.94710         0.07368
C         57.63287        33.07066         0.23322
C         56.39998        33.79680         0.04818
C         57.62368        35.92802         0.35199
C         56.40462        35.21981         0.11817
C         57.61802        37.35774         0.40013
C         56.39710        38.08388         0.18696
C         57.59788        40.21815         0.45766
C         56.41205        39.50297         0.17671
C         57.58592        41.66495         0.51262
C         56.37758        42.38605         0.29876
C         57.58009        44.51303         0.68897
C         56.36883        43.80487         0.40379
C         57.56516        45.92912         0.76457
C         56.33997        46.63330         0.72217
C         57.52381        48.69643         1.39530
C         56.32216        48.06101         0.93200
C         58.78197        25.14990         0.42875
C         60.07248        27.33292         0.48597
C         58.85097        26.59651         0.01383
C         60.06550        28.67675         0.63899
C         58.85973        29.46637         0.45789
C         60.04861        31.63855         0.68445
C         58.84989        30.87140         0.49517
C         60.04037        33.00480         0.67732
C         58.83438        33.76484         0.47183
C         60.03165        35.94457         0.76220
C         58.84045        35.20551         0.52642
C         60.02376        37.31968         0.82417
C         58.82494        38.06760         0.64513
C         59.99260        40.24563         0.99599
C         58.81045        39.50447         0.70848
C         59.98318        41.61574         1.06085
C         58.78833        42.37081         0.83986
C         59.95202        44.53242         1.37878
C         58.78734        43.78933         0.93702
C         59.99207        45.88257         1.36129
C         58.86586        46.69036         0.78682
C         58.71806        48.04428         1.42088
O         49.90432        48.38606        -2.11363
O         55.38572        29.15782         1.43784
O         37.12603        41.85242        -2.53074
O         39.87798        20.39519         2.19462
O         39.74084        27.26879         1.97628
O         44.19595        47.33823        -2.54984
O         40.92940        46.58130        -2.71846
O         29.49984        43.07850         1.59913
O         34.74024        20.91497         2.77761
O         39.47218        33.48924        -2.25166
O         25.85566        45.34721         2.25703
O         51.59032        48.48982         1.26111
O         37.80590        45.42506        -2.65046
O         30.69351        48.59310        -1.77085
O         54.83952        31.26185        -1.80468
O         52.10866        35.66037        -1.82847
O         40.79994        51.07968        -1.97690
O         47.05547        44.29402         0.99844
O         48.89861        30.25875        -2.16780
O         39.59863        30.85100        -1.94632
O         35.23655        49.12474        -2.47677
H         35.29209        48.24817        -2.91505
O         55.65750        27.24503        -1.69393
H         54.97164        27.65638        -2.26286
O         25.12551        28.70279        -2.11457
H         24.30690        28.17637        -2.24188
O         45.38839        18.72645        -1.83302
H         46.23166        19.18662        -2.03322
O         52.92168        41.65893        -2.22326
H         52.28265        41.01168        -2.59064
O         29.20936        29.37597        -2.42421
H         28.60343        30.08245        -2.76164
O         49.17170        38.08089        -2.44379
H         49.28068        37.13854        -2.69687
O         41.66792        30.01676         1.70969
H         41.46985        29.20316         2.22423
O         50.55320        50.85447        -2.22270
H         50.12219        50.16257        -2.77907
O         33.64091        25.66598         1.79430
H         33.70523        24.87147         2.36524
O         55.95313        26.64049         1.92377
H         55.78549        27.58726         2.16328
O         33.18130        24.05402        -1.52159
H         33.48076        24.86301        -2.00349
O         41.35567        35.45149        -2.67303
H         40.61501        34.85177        -2.94401
O         34.40830        26.33444        -1.73926
H         34.42308        27.19501        -2.20969
O         39.45712        22.86630         2.60480
H         39.85094        22.05739         3.01137
O         26.15297        46.61083        -1.18242
H         26.78175        47.14379        -1.71420
O         41.54448        39.73246         1.21240
H         41.05367        38.95478         1.57819
O         51.52116        29.43031        -2.58136
H         50.66499        29.81013        -2.89825
O         36.76881        33.78241         1.56035
H         35.93026        34.11268         1.94815
O         55.11872        40.00631        -1.74527
H         55.72318        40.64689        -2.17390
O         31.23163        43.75801        -2.21688
H         31.32625        44.67419        -2.55726
O         37.26317        18.98531        -0.90769
H         36.40606        19.45968        -0.95195
O         53.35908        46.35671        -1.76524
H         52.80452        45.91796        -2.44450
O         53.28307        46.37795         1.91048
H         52.55217        47.02907         2.05748
O         50.12797        24.03338        -1.93638
H         50.14794        24.84376        -2.48730
O         51.31253        38.16731         1.53980
H         50.45900        38.60169         1.75589
O         27.78983        31.75270        -2.40359
H         26.88548        32.07202        -2.61409
O         42.62307        46.25780         0.57436
H         43.31389        45.72656         1.02786
O         40.33032        37.28457         1.33944
H         39.49552        36.85078         1.62093
O         48.95883        33.83470         1.36378
H         48.14598        34.30375         1.65100
O         42.58301        49.30650        -2.89754
H         42.66883        48.45009        -3.37489
O         39.22087        46.21724         0.54329
H         40.08029        46.56072         0.87365
O         44.03356        38.14163        -2.63377
H         43.81705        37.23020        -2.92765
O         58.91907        26.57879        -1.46463
H         57.99819        26.48789        -1.79739
O         50.17606        23.56256         1.68773
H         50.20685        22.75230         2.23816
O         40.41430        44.19170        -3.11719
H         39.64773        44.64062        -3.54102
O         46.53036        51.63704        -2.14430
H         46.45423        50.87295        -2.75519
O         53.86457        39.74445         1.68078
H         53.06633        39.26716         2.00937
O         59.22781        46.95017        -0.62827
H         58.47669        47.43713        -1.02999
O         39.69718        22.87901        -1.04394
H         40.35557        23.23644        -1.67603
H         22.06476        26.80667         0.29425
H         22.03807        29.25189         0.30715
H         22.11043        31.12001         0.54121
H         22.12600        33.53369         0.58365
H         22.08238        35.40011         0.39379
H         22.08717        37.80805         0.61709
H         22.11013        39.66313         0.94977
H         22.12180        42.07019         1.24737
H         22.12412        43.97182         1.46294
H         22.08688        46.40875         1.43387
H         25.43635        23.45106         0.37215
H         23.31541        24.69807         0.43503
H         25.41863        49.86096         0.96857
H         23.29780        48.63415         1.12667
H         27.04620        22.50276         0.12140
H         27.17624        50.73303         1.15949
H         29.13562        21.30508         0.33698
H         29.28218        51.91925         0.92051
H         32.70886        19.33618         1.76091
H         30.68425        20.43229         0.97047
H         32.84063        54.11121         0.39578
H         30.73241        52.93365         0.17562
H         34.61071        18.30638         2.11732
H         34.45571        54.92254         0.94137
H         36.56301        17.08844         1.32086
H         36.55764        56.03045         1.41193
H         40.12264        14.95155        -0.12280
H         38.02031        16.19872         0.21341
H         40.31181        57.83602         2.63760
H         38.17794        56.79675         2.00748
H         42.59224        14.92406        -0.38282
H         42.76402        57.75265         2.80463
H         44.73814        16.14854        -0.52645
H         44.89506        56.60213         2.40270
H         48.44011        18.28693         0.75996
H         46.35781        17.06073         0.45857
H         48.62309        54.63909         1.49560
H         46.51586        55.69106         2.10117
H         50.14488        19.17095         0.34506
H         50.16674        54.16527         0.38341
H         52.25707        20.32627         0.14412
H         52.33456        53.07716         0.31072
H         56.01538        22.45183        -0.22518
H         53.90837        21.25755        -0.28193
H         56.03045        50.78582         0.93937
H         54.03920        52.08080         0.48868
H         57.62480        23.37674         0.55652
H         57.47050        49.72824         1.77182
H         59.72674        24.61183         0.59974
H         61.00296        26.76388         0.63269
H         60.99647        29.18498         0.92788
H         61.00236        31.11921         0.84780
H         60.98952        33.53195         0.83943
H         60.98696        35.42194         0.90017
H         60.97344        37.83803         1.00947
H         60.93909        39.72012         1.17744
H         60.92332        42.13665         1.28337
H         60.82025        43.98190         1.76734
H         60.88958        46.41643         1.70789
H         59.62077        48.55536         1.78720
