         314
 CSIRO Nanostructure Databank - Neutral Graphene Oxide Data Set
C         30.41225        57.17737        -1.11236
C         30.40892        58.57391        -0.83701
C         29.19938        59.17078        -0.38456
C         30.38199        61.08460         0.54562
C         29.19578        60.40860         0.26439
C         32.89567        52.95114        -0.30909
C         32.85907        54.33618        -0.57126
C         31.61252        55.00212        -0.74642
C         32.83754        56.90533        -1.54550
C         31.57968        56.34720        -1.16041
C         32.82223        59.01691        -1.33843
C         31.60308        59.38760        -0.73190
C         32.86844        61.18450         0.36804
C         31.62002        60.57177         0.07109
C         35.38260        48.66676         0.40761
C         35.30224        50.13095         0.53633
C         34.11656        50.87255         0.11083
C         35.33261        53.04367         0.00373
C         34.11240        52.27073        -0.04667
C         35.34883        54.40545        -0.35595
C         34.10033        55.07187        -0.64110
C         35.31426        57.22126        -1.26858
C         34.07460        56.40776        -1.12229
C         35.31452        58.76818        -1.24743
C         34.06750        59.49544        -0.92863
C         35.35348        61.17366         0.35172
C         34.08632        60.62163        -0.05094
C         37.82824        44.40585         0.64213
C         37.77939        45.80045         0.40912
C         36.60085        46.53382         0.51219
C         37.87272        48.68029         0.58897
C         36.56605        47.97063         0.49967
C         37.90747        50.19733         0.62432
C         36.59051        50.91947         0.69405
C         37.89237        53.07511         0.04040
C         36.58974        52.39092         0.39499
C         37.82817        54.44481        -0.51062
C         36.59539        55.10662        -0.56030
C         37.86401        57.24039        -1.11991
C         36.56907        56.61372        -0.65985
C         37.90657        58.72405        -1.20693
C         36.62032        59.53215        -1.01921
C         37.74273        61.36753         0.48393
C         36.58369        60.74036        -0.11902
C         40.24712        40.19211         0.74340
C         40.21903        41.57603         0.82717
C         38.99823        42.28489         0.89322
C         40.38933        44.25091         0.39383
C         39.01760        43.66664         0.65810
C         40.37111        45.71960         0.01753
C         39.03739        46.48683         0.03251
C         40.27981        48.62030         0.02055
C         39.08145        47.94365         0.16205
C         40.25595        50.07491        -0.27661
C         39.08445        50.90009         0.04118
C         40.33605        52.96724        -0.56189
C         39.11276        52.26335        -0.18975
C         40.32710        54.43020        -0.69718
C         39.06623        55.13255        -0.69642
C         40.28821        57.21896        -0.29118
C         39.04561        56.56463        -0.87888
C         40.31415        58.73316        -0.40849
C         39.19030        59.34824        -0.87807
C         40.25896        61.47946         0.82070
C         39.06100        61.24278         0.07275
C         42.61548        35.98170        -0.22343
C         42.63864        37.34965         0.08712
C         41.43745        38.10122         0.28101
C         42.71219        40.21094         0.53579
C         41.45526        39.47469         0.49807
C         42.71993        41.60046         0.65196
C         41.45613        42.41316         0.63767
C         42.75451        44.53722         1.21983
C         41.43332        43.77377         1.41820
C         42.77577        45.91182         0.69623
C         41.57134        46.54504         0.26628
C         42.75216        48.75534         0.45247
C         41.53266        47.93538         0.08461
C         42.82120        50.12587        -0.16685
C         41.56773        50.80316        -0.51040
C         42.82294        52.90603        -0.88685
C         41.53383        52.26846        -0.58872
C         42.80790        54.46022        -1.05869
C         41.53875        55.13142        -0.82334
C         42.80999        57.33052        -0.40200
C         41.56605        56.64338        -0.93152
C         42.71862        58.68926        -0.01660
C         41.49557        59.42729         0.01397
C         42.61724        61.20310         1.36571
C         41.43315        60.73337         0.65324
C         45.02594        33.22554        -1.08904
C         43.81180        33.88487        -0.79776
C         45.06526        35.87918        -0.11409
C         43.81812        35.23641        -0.35188
C         45.11165        37.28090         0.06777
C         43.89846        38.02723         0.19239
C         45.19578        40.07171         0.44683
C         43.94315        39.43676         0.43081
C         45.27629        41.48200         0.82507
C         43.98188        42.26363         1.01991
C         45.23863        44.44787         0.52175
C         44.05617        43.76268         1.06390
C         45.25997        45.84224         0.43924
C         44.02040        46.59477         0.54723
C         45.25469        48.71661         0.23205
C         44.03522        47.98901         0.31945
C         45.26163        50.12108         0.11494
C         44.03446        50.84276        -0.15114
C         45.33993        52.93517        -0.73166
C         44.05786        52.22305        -0.53283
C         45.38406        54.44772        -0.73827
C         44.09301        55.22640        -0.86898
C         45.22648        57.17811         0.18387
C         44.03975        56.61348        -0.33846
C         45.22987        58.61642         0.49799
C         43.94528        59.39557         0.37582
C         45.06787        60.91391         2.01203
C         43.82662        60.60781         1.21917
C         46.24068        33.77085        -0.74934
C         47.55491        35.83245        -0.32439
C         46.32056        35.05588         0.01768
C         47.59453        37.22454        -0.21302
C         46.37369        37.96021         0.04489
C         47.65730        40.06589         0.11472
C         46.41182        39.36412         0.18928
C         47.67248        41.49822         0.15761
C         46.50164        42.20552         0.46172
C         47.72676        44.33794        -0.13062
C         46.41039        43.62955         0.14427
C         47.72826        45.83047        -0.09890
C         46.47929        46.57833         0.18417
C         47.75224        48.71849         0.22814
C         46.50387        47.97514         0.22588
C         47.80693        50.09968         0.16991
C         46.53114        50.89110         0.36068
C         47.83436        52.99794        -0.07900
C         46.59550        52.22079        -0.35551
C         47.77092        54.38741         0.05868
C         46.53551        55.10389        -0.05424
C         47.57269        57.06351         1.12516
C         46.43234        56.43678         0.37574
C         47.46994        58.43637         1.71844
C         46.20767        59.22899         1.47956
C         47.52748        61.33111         1.09912
C         46.35206        60.70431         1.24761
C         48.81846        37.94894        -0.30134
C         50.12071        40.04989        -0.14276
C         48.87649        39.34462        -0.11342
C         50.19019        41.44732        -0.02719
C         48.93972        42.19859         0.02581
C         50.24189        44.26449         0.36691
C         48.96912        43.58012         0.06358
C         50.27731        45.77041         0.39898
C         49.03168        46.52569         0.05182
C         50.31650        48.67066         0.29712
C         49.00750        47.96687         0.40609
C         50.31653        50.13002         0.09486
C         49.05831        50.83346         0.07196
C         50.32426        52.98809        -0.09366
C         49.04826        52.24984        -0.02468
C         50.32965        54.45095         0.24204
C         49.01238        55.17326         0.28140
C         50.05879        57.08213         1.45941
C         48.93113        56.47839         0.97096
C         50.04272        58.49453         1.93708
C         48.72197        59.30156         1.95461
C         50.03469        61.24277         0.96341
C         48.75138        60.45035         0.90123
C         51.43187        42.14520        -0.03160
C         52.71701        44.27908         0.15452
C         51.51649        43.54667         0.14955
C         52.76735        45.71884         0.15967
C         51.55580        46.44174         0.16743
C         52.85283        48.62110        -0.07584
C         51.52729        47.87921        -0.08775
C         52.80314        50.05985         0.22733
C         51.55721        50.76646         0.13286
C         52.77868        52.90020         0.68057
C         51.61277        52.23307         0.07794
C         52.69370        54.27533         1.07802
C         51.47260        54.99656         0.98499
C         52.67118        57.10753         1.79644
C         51.35197        56.34053         1.55211
C         52.61651        58.55105         1.48996
C         51.33921        59.26609         1.74305
C         52.46388        61.34404         0.90271
C         51.24905        60.67867         1.27216
C         54.01189        46.44342         0.17913
C         55.25791        48.59411         0.45559
C         54.08101        47.84802         0.19349
C         55.24986        50.01070         0.59027
C         53.99081        50.73199         0.51076
C         55.15683        52.79110         1.23465
C         53.96255        52.14617         0.81379
C         55.00914        54.09876         1.74086
C         53.86830        54.88641         1.61533
C         54.97321        56.98318         0.72877
C         54.03206        56.39609         1.81109
C         55.00537        58.50636         0.79585
C         53.71538        59.21733         0.99608
C         54.72952        61.27116        -0.00837
C         53.65384        60.64119         0.67863
C         56.44034        50.75158         0.77676
C         57.63910        52.89216         0.73226
C         56.45153        52.16396         0.99217
C         57.73587        54.31912         0.52397
C         56.78082        55.19220         1.14738
C         57.28454        57.01110        -0.32518
C         56.38545        56.40716         0.61339
C         57.12063        58.37170        -0.68147
C         56.09017        59.18963         0.00515
C         56.77191        61.13170        -1.37745
C         55.86056        60.57415        -0.46959
C         58.58021        54.89576        -0.43747
C         59.28727        56.88825        -1.73515
C         58.41513        56.26174        -0.81785
C         59.09867        58.22752        -2.13138
C         58.01247        58.98859        -1.57611
C         58.75805        60.95867        -2.83438
C         57.85164        60.38060        -1.92523
C         59.98457        58.87024        -3.04596
C         59.80702        60.20346        -3.38402
O         46.89899        43.86284        -1.23660
O         42.83819        53.57378        -2.20378
O         51.91285        56.57008         2.90854
O         32.78452        58.04337        -2.35254
O         40.15324        56.90351         1.04925
O         40.78357        50.23551        -1.64306
O         51.18191        52.72706        -1.25236
O         50.84473        58.89093         3.08439
O         44.98935        59.47459        -0.66648
O         52.16244        48.29271        -1.33289
O         35.39484        57.99045        -2.47886
O         44.69403        41.69845         2.17081
O         56.15150        54.69095         2.29071
O         45.38499        59.60641         2.69182
O         39.66133        46.00465        -1.21173
O         47.28380        57.28969         2.57538
O         48.49256        46.32311        -1.28340
O         56.14451        59.07967         1.48458
O         49.77152        48.28258         1.61560
O         37.38144        53.08468         1.42215
O         46.19769        52.25974        -1.74828
O         43.63527        44.33135         2.36833
O         35.81712        50.60994         1.86803
O         37.31429        59.53263        -2.29327
O         41.09268        43.30149        -0.58517
O         49.88106        55.26707        -0.91021
O         45.01522        55.08551        -1.99924
O         38.15404        49.42253         1.83638
O         50.17692        45.00772         1.65004
O         39.27277        60.70451        -1.21486
O         41.46173        56.95292        -2.34725
H         42.25392        56.59664        -2.80365
O         54.60934        56.68376         3.08813
H         53.92065        56.52363         3.76867
O         42.59104        49.02242         1.91520
H         42.63979        48.15625         2.37517
O         46.42601        34.68411         1.46411
H         46.37116        35.51757         1.97907
O         41.05904        43.76279         2.77722
H         41.88799        43.76602         3.30798
O         54.32117        56.64241        -0.52766
H         54.92828        56.85277        -1.26860
O         48.69643        59.79420        -0.39508
H         48.56546        60.47597        -1.08669
O         48.56180        59.92148         3.23511
H         49.36592        59.71751         3.76860
O         36.46799        57.04656         0.75668
H         37.24524        56.67713         1.23489
O         46.51374        51.26356         1.78516
H         46.47714        50.43823         2.31417
H         29.44946        56.65970        -0.96806
H         28.25813        58.61140        -0.48742
H         30.36690        62.01674         1.12746
H         28.24107        60.82499         0.61573
H         31.95493        52.38195        -0.30252
H         30.67986        54.46619        -0.52031
H         32.88241        62.08976         0.99246
H         34.44211        48.11247         0.26824
H         33.18373        50.31653        -0.06502
H         35.33198        62.02665         1.04752
H         36.88922        43.88032         0.87408
H         35.65510        45.99656         0.68033
H         37.54771        61.94423         1.40204
H         39.30180        39.63204         0.80410
H         38.04686        41.74882         1.02230
H         40.25212        62.26562         1.59231
H         41.65016        35.47695        -0.37817
H         40.47283        37.57276         0.26107
H         42.50929        62.08498         2.01645
H         44.98934        32.24467        -1.58580
H         42.85341        33.39250        -1.01533
H         44.98001        61.77096         2.71668
H         47.17367        33.23605        -0.98012
H         48.48400        35.28000        -0.53166
H         47.63529        62.42257         1.18850
H         49.74964        37.39424        -0.49228
H         51.05012        39.47178        -0.25481
H         50.02453        62.25878         0.53544
H         52.35913        41.56581        -0.15681
H         53.66716        43.73056         0.06701
H         52.40332        62.39934         0.59588
H         54.94237        45.86781         0.29786
H         56.20945        48.05799         0.59142
H         54.60496        62.32433        -0.30383
H         57.40433        50.22700         0.68757
H         58.49421        52.29447         0.37343
H         56.63167        62.17270        -1.70653
H         59.33017        54.28076        -0.95651
H         60.14604        56.32611        -2.13120
H         58.64227        62.01604        -3.11237
H         60.81663        58.29579        -3.47774
H         60.50045        60.68231        -4.08963
