         720
 CSIRO Nanostructure Databank - Neutral Graphene Oxide Data Set
C         22.89833        27.31913        -0.17014
C         22.91923        28.68869        -0.12486
C         22.92213        31.61977         0.06833
C         22.91705        32.99345         0.11469
C         22.94693        35.94816         0.23587
C         22.96114        37.34517         0.25342
C         22.90935        40.32830         0.08221
C         22.88718        41.65915        -0.12139
C         23.02870        44.68819        -0.26567
C         23.09458        46.12234        -0.21046
C         25.34449        24.44787        -0.36742
C         24.13275        25.17397        -0.23686
C         25.35992        27.28495         0.14344
C         24.10516        26.55479        -0.08515
C         25.38356        28.76520         0.00290
C         24.14258        29.44754        -0.06327
C         25.36905        31.59793        -0.11150
C         24.13633        30.88139        -0.04193
C         25.35191        33.03130        -0.13003
C         24.12228        33.73997        -0.00073
C         25.32715        35.87458        -0.30247
C         24.11043        35.18180        -0.02847
C         25.26973        37.32948        -0.55195
C         24.08611        38.08763        -0.13370
C         25.33033        40.23025        -0.18782
C         24.13624        39.53761        -0.08862
C         25.32298        41.69132         0.21222
C         24.15043        42.41503        -0.47871
C         25.47861        44.54309        -0.15594
C         24.14284        43.90199        -0.16522
C         25.55457        46.03975        -0.30635
C         24.28978        46.80001        -0.19612
C         25.50594        48.91919         0.18301
C         24.35207        48.23879        -0.01435
C         27.89794        22.94436        -0.54698
C         27.84392        24.36509        -0.61752
C         26.58376        25.06983        -0.39474
C         27.81868        27.33279        -0.56375
C         26.65446        26.50212        -0.05278
C         27.89384        28.69509         0.20123
C         26.60462        29.47139        -0.03189
C         27.83887        31.62898        -0.36374
C         26.61327        30.88456        -0.15520
C         27.80347        33.03007        -0.43826
C         26.58041        33.75588        -0.27233
C         27.81199        35.94591        -0.30793
C         26.54708        35.17959        -0.36414
C         27.83730        37.37144        -0.49845
C         26.60893        38.09598        -0.73198
C         27.90776        40.27206        -0.18431
C         26.60965        39.58427        -0.51365
C         27.90666        41.66976         0.31758
C         26.66125        42.40854         0.18897
C         27.81363        44.45860         1.01434
C         26.66751        43.77368         0.29405
C         27.87327        45.95747         0.73564
C         26.84434        46.74255         0.01541
C         27.94995        48.89252         0.99295
C         26.83040        48.25155         0.24379
C         27.94138        50.22824         1.42611
C         30.33398        22.87982        -0.70356
C         29.10065        22.23520        -0.54171
C         30.29877        24.32629        -0.99212
C         29.04586        25.08917        -0.79028
C         30.29230        27.21274        -0.76927
C         29.10736        26.52738        -0.65883
C         30.35187        28.68401        -0.60846
C         29.15858        29.47707        -0.18968
C         30.26344        31.58664        -0.89642
C         29.10330        30.93189        -0.53106
C         30.30960        33.04120        -1.12464
C         29.02183        33.77866        -0.83165
C         30.39764        35.93106        -0.70297
C         29.14802        35.19999        -0.42446
C         30.40837        37.33673        -0.58671
C         29.12502        38.12297        -0.71636
C         30.41665        40.17615        -0.03885
C         29.13754        39.41243         0.12204
C         30.43246        41.55421         0.58104
C         29.11950        42.32539         0.50298
C         30.41073        44.35663         0.87085
C         29.15231        43.73004         0.80145
C         30.63474        45.62581         1.49634
C         28.81707        46.67977         1.38964
C         30.29293        48.60599         1.86101
C         29.07831        48.09129         1.30917
C         30.15234        49.89706         2.38105
C         29.00403        50.69065         2.19718
C         32.90812        20.12953        -0.96866
C         31.68913        20.78852        -0.92991
C         32.83228        22.91838        -0.61894
C         31.60469        22.19463        -0.76744
C         32.83513        24.37470        -0.63446
C         31.61071        25.06185        -1.13165
C         32.77246        27.31398        -0.74001
C         31.57266        26.58709        -1.29174
C         32.81997        28.68252        -0.87995
C         31.54914        29.38210        -1.18281
C         32.81601        31.59733        -1.06615
C         31.53102        30.87186        -1.17195
C         32.81500        33.05068        -1.10019
C         31.60679        33.76761        -1.06578
C         32.81693        35.95010        -1.03694
C         31.61182        35.21834        -0.95310
C         32.84205        37.37800        -0.89258
C         31.59796        38.07292        -0.68173
C         32.81708        40.23584        -0.56153
C         31.60433        39.52784        -0.44594
C         32.93178        41.63654        -0.00954
C         31.62169        42.36619         0.14485
C         32.75389        44.60040         0.07758
C         31.59976        43.73749         0.31205
C         32.80979        45.90819         0.56234
C         31.69558        46.47943         1.28151
C         32.71737        48.82359         1.08048
C         31.70105        47.91074         1.87900
C         32.97689        50.23367         1.66239
C         32.26224        50.88763         2.66212
C         33.56345        52.93479         2.57903
C         32.70372        52.14234         3.24760
C         35.51901        18.70663        -0.73397
C         35.40174        20.07652        -0.61402
C         34.12754        20.80441        -0.70842
C         35.24605        22.93725         0.00675
C         34.04826        22.20383        -0.45742
C         35.20505        24.44747         0.13563
C         33.94352        25.10851        -0.26121
C         35.22177        27.37355        -0.08445
C         33.90499        26.58159        -0.19965
C         35.24535        28.76635        -0.55817
C         34.04194        29.44467        -0.78974
C         35.27769        31.60258        -1.17326
C         33.99884        30.88349        -0.99007
C         35.29136        33.08115        -1.11983
C         34.06848        33.75624        -1.14099
C         35.32754        35.92427        -1.11916
C         34.05443        35.22070        -1.49317
C         35.30477        37.39159        -1.26119
C         34.04205        38.11932        -1.04838
C         35.29021        40.39038        -1.18157
C         33.95972        39.61547        -1.34318
C         35.26970        41.81124        -0.77278
C         33.90333        42.45332        -0.87052
C         35.20912        44.72705        -0.64680
C         33.92133        43.96264        -0.59599
C         35.16289        46.23450        -0.33661
C         34.13894        46.61796         0.74115
C         35.23124        48.84664         0.62691
C         34.05947        48.13940         0.82350
C         35.27454        50.31150         0.72556
C         34.11660        50.96958         1.16998
C         35.33397        53.18113         0.87155
C         34.04969        52.48041         1.21598
C         35.30316        54.58754         0.62994
C         37.94782        18.62115        -0.29242
C         36.76279        17.99899        -0.59223
C         37.92999        20.07600        -0.03523
C         36.62027        20.83206        -0.22790
C         37.62265        23.13543        -0.52456
C         36.54911        22.31762        -0.31116
C         37.73991        24.50628        -0.11180
C         36.47478        25.22564         0.00829
C         37.77381        27.27357        -0.38837
C         36.46479        26.58740        -0.10912
C         37.68658        28.77244        -0.26358
C         36.52688        29.43090        -0.59692
C         37.82850        31.61914        -0.88112
C         36.56582        30.85705        -1.00766
C         37.79031        33.06769        -0.97596
C         36.54413        33.77372        -1.05757
C         37.77139        35.92543        -0.78575
C         36.54255        35.22634        -1.02201
C         37.93867        37.41107        -1.01400
C         36.61588        38.14008        -1.25255
C         37.76500        40.29020        -0.47084
C         36.61704        39.63876        -1.09169
C         37.70268        41.75918        -0.13620
C         36.44697        42.51771        -0.56891
C         37.67802        44.67034        -0.33466
C         36.47459        43.95682        -0.50782
C         37.70684        46.07277        -0.12652
C         36.50150        46.82429         0.02702
C         37.77930        48.89364         0.64806
C         36.49228        48.15719         0.37743
C         37.73088        50.33281         0.06970
C         36.48229        51.04035         0.53303
C         37.79083        53.19254         0.65941
C         36.51335        52.45287         0.68674
C         37.75717        54.70787         0.48142
C         36.42752        55.30208         0.30893
C         40.53025        15.85037         0.21714
C         39.39251        16.47696        -0.17924
C         40.44765        18.69456         0.43708
C         39.27941        17.94792        -0.19275
C         40.23392        20.06197         1.06828
C         39.23810        20.76781         0.18587
C         40.22504        22.95359         0.80527
C         39.48198        22.04885        -0.14515
C         40.24964        24.43898         0.45532
C         38.98582        25.10617         0.16937
C         40.17609        27.35027         0.58610
C         38.91319        26.58085         0.34570
C         40.18640        28.84292         0.34753
C         38.92519        29.54706        -0.06418
C         40.30110        31.54205        -0.70323
C         38.98869        30.91597        -0.62531
C         40.28238        33.12810        -0.70365
C         38.97584        33.79117        -0.71010
C         40.07772        35.83701         0.13009
C         38.94526        35.20666        -0.50437
C         40.05234        37.29041         0.50507
C         38.87001        38.08436         0.00284
C         40.14392        40.25460         0.11266
C         38.94040        39.57954        -0.10736
C         40.31271        41.67711        -0.39131
C         38.99089        42.45314        -0.55342
C         40.21237        44.68145        -0.26050
C         38.96277        43.94559        -0.50559
C         40.20584        46.05938        -0.23251
C         38.95814        46.80429        -0.12410
C         40.20776        48.97505        -0.26728
C         38.98386        48.16711         0.09449
C         40.30079        50.29574         0.53098
C         39.03148        51.10723         0.32167
C         40.34540        53.27922         0.59331
C         39.05917        52.45820         0.42710
C         40.21758        54.68031        -0.00221
C         39.00246        55.37546         0.00009
C         40.12230        57.42222        -0.71558
C         38.96726        56.74072        -0.39583
C         42.93770        15.87765         1.01413
C         41.69771        16.57639         0.68151
C         42.89565        18.71756         1.09068
C         41.62841        17.93439         0.86896
C         42.73186        20.16066         1.50174
C         41.54490        20.85624         1.22399
C         42.70993        23.07007         1.42469
C         41.51751        22.26244         1.14183
C         42.80169        24.43114         0.74193
C         41.43980        25.16478         0.64450
C         42.63133        27.34202         0.42941
C         41.45213        26.60240         0.55792
C         42.65311        28.74823         0.15324
C         41.48166        29.49828         0.06514
C         42.72102        31.65692        -0.11890
C         41.51226        30.89107        -0.23158
C         42.67511        33.08619         0.10225
C         41.39862        33.73676         0.00095
C         42.89513        36.06520         0.97900
C         41.07122        34.98214         0.60295
C         42.69386        37.37132         0.66405
C         41.35538        38.05062         0.80134
C         42.69397        40.23743         0.34827
C         41.37101        39.54572         0.53868
C         42.69749        41.71306         0.54415
C         41.38379        42.45123         0.39630
C         42.69706        44.69251         0.32536
C         41.39720        43.95422         0.26374
C         42.71209        45.98977        -0.47607
C         41.45845        46.79790        -0.21590
C         42.69855        48.90537        -0.61780
C         41.47981        48.15933        -0.21973
C         42.78710        50.35693        -0.31555
C         41.59351        51.07627         0.22769
C         42.65314        53.21484        -0.43137
C         41.56146        52.54864         0.05094
C         42.65878        54.66996        -0.49369
C         41.41108        55.36177        -0.39553
C         42.59219        57.43716        -0.97528
C         41.37404        56.75368        -0.70371
C         43.99817        16.51192         1.55107
C         45.26632        18.74273         1.66298
C         43.96485        17.98100         1.92616
C         45.26009        20.14789         1.63569
C         43.97465        20.84895         2.05608
C         45.29668        23.07736         1.71390
C         43.96873        22.36473         1.83520
C         45.27845        24.57529         1.59695
C         43.89632        25.33954         1.43088
C         44.88905        27.69209         1.20551
C         43.96581        26.66294         0.61521
C         45.07489        28.87080         0.58089
C         43.95092        29.43989        -0.24347
C         45.15650        31.64976         0.13904
C         43.94989        30.94929        -0.03910
C         45.13232        33.06851         0.27749
C         43.92317        33.78169         0.36660
C         45.21641        35.91672         0.37868
C         44.03109        35.23793         0.57632
C         45.18808        37.42146         0.55196
C         43.86912        38.05867         0.00277
C         45.19086        40.29038         0.44694
C         43.86647        39.56822         0.22218
C         45.17301        41.76885         0.15685
C         43.96868        42.44498         0.35163
C         45.26175        44.64341         0.18539
C         43.97689        43.92011         0.45431
C         45.27386        46.12938        -0.03981
C         43.97319        46.80116        -0.27307
C         45.27444        48.90973        -0.85243
C         43.99147        48.18132        -0.81538
C         45.17416        50.35126        -1.12141
C         43.93756        51.07354        -0.85206
C         45.14861        53.27875        -0.69456
C         43.86233        52.55238        -1.07662
C         45.14332        54.65228        -0.59222
C         43.86181        55.37522        -0.69079
C         43.80222        56.77657        -0.91905
C         47.62138        18.73313         1.06978
C         46.45877        18.05089         1.37191
C         47.65181        20.14492         1.02687
C         46.45388        20.86981         1.31492
C         47.66422        22.97618         0.84720
C         46.50130        22.31100         1.27393
C         47.70886        24.42766         0.78161
C         46.58575        25.18623         1.19542
C         47.81179        27.28048         0.81887
C         46.76374        26.55751         1.39554
C         47.68974        28.71662         0.41306
C         46.39819        29.48232         0.32832
C         47.65448        31.58221         0.04414
C         46.44442        30.94646         0.19121
C         47.62593        33.06139        -0.24756
C         46.47280        33.74941         0.51125
C         47.65619        35.90692         0.01213
C         46.47696        35.23579         0.21815
C         47.73270        37.40927         0.13802
C         46.39922        38.09186        -0.08642
C         47.66385        40.31869        -0.26646
C         46.38644        39.57923        -0.16109
C         47.64115        41.69719        -0.31331
C         46.41445        42.41730        -0.12736
C         47.68210        44.64900        -0.55120
C         46.40451        43.87192        -0.35674
C         47.71831        46.12450        -0.37412
C         46.53408        46.83108        -0.39025
C         47.74741        48.98419        -0.74710
C         46.49298        48.26324        -0.65866
C         47.75772        50.38696        -0.77417
C         46.49849        51.13063        -0.97692
C         47.71200        53.26687        -0.23294
C         46.39363        52.52304        -0.46892
C         47.60806        54.72905        -0.34514
C         46.40455        55.35665        -0.44229
C         50.09827        20.13790         0.54068
C         48.88154        20.84340         0.70559
C         50.09357        22.93668         0.17745
C         48.88450        22.25755         0.55871
C         50.11726        24.39152         0.03202
C         48.90109        25.11351         0.39510
C         50.06088        27.29239        -0.12876
C         48.89953        26.52794         0.35142
C         50.16619        28.71357         0.33483
C         48.92792        29.50098         0.33072
C         50.18724        31.55358        -0.13194
C         48.92642        30.86925         0.08501
C         50.16927        32.97871        -0.63638
C         48.99543        33.72478         0.05519
C         50.17776        35.91864        -0.66763
C         48.90332        35.18273        -0.35541
C         50.21098        37.38143        -0.46093
C         48.90337        38.07868        -0.57703
C         50.19859        40.27158        -0.35297
C         48.90980        39.57646        -0.58390
C         50.19327        41.69920        -0.34008
C         48.91594        42.41063        -0.76224
C         50.20405        44.61565        -0.18042
C         48.91839        43.86009        -0.31675
C         50.17488        46.08097        -0.34741
C         49.00122        46.79844        -0.43783
C         50.19915        48.94024        -0.70904
C         49.00879        48.26024        -0.63030
C         50.26871        50.41699        -1.01902
C         48.97830        51.14088        -0.67497
C         50.24751        53.18244        -0.28908
C         48.98879        52.52161        -0.46458
C         51.26688        20.79680         0.21061
C         52.52841        22.83835        -0.48914
C         51.28154        22.19060        -0.00293
C         52.51782        24.35593        -0.68939
C         51.27263        25.07474        -0.34501
C         52.58510        27.30236        -0.52736
C         51.30383        26.55061        -0.48821
C         52.65042        28.67843        -0.31687
C         51.46437        29.42848         0.17652
C         52.65591        31.58363        -0.14455
C         51.40695        30.89102        -0.04564
C         52.68141        33.03147        -0.28374
C         51.49116        33.71359        -0.45908
C         52.73897        35.96221        -0.48923
C         51.49588        35.16159        -0.92313
C         52.58299        37.28562         0.26539
C         51.36580        38.07634        -0.19038
C         52.58335        40.20043         0.33098
C         51.34899        39.51519        -0.08486
C         52.62129        41.71096         0.19455
C         51.39044        42.42451        -0.20546
C         52.69733        44.52025        -0.28769
C         51.45871        43.84751        -0.30860
C         52.72618        46.03465        -0.17941
C         51.47009        46.74550        -0.74457
C         52.73224        48.94346        -0.81940
C         51.48051        48.23336        -0.33549
C         52.75496        50.40401        -0.54632
C         51.53808        51.10111        -0.52962
C         51.44542        52.49806        -0.26223
C         54.99522        22.94114        -0.48763
C         53.85338        22.24002        -0.26810
C         55.01245        24.36690        -0.76305
C         53.81361        25.07147        -0.72128
C         55.09847        27.28799        -0.97106
C         53.79199        26.54157        -0.90226
C         55.14613        28.82497        -0.88887
C         53.86112        29.43741        -0.36765
C         55.11290        31.54246         0.22521
C         53.85702        30.82519        -0.11404
C         55.11735        33.01550         0.11755
C         53.98070        33.72251        -0.19080
C         55.13332        35.95730         0.39827
C         54.00834        35.21671        -0.23431
C         55.11530        37.31885         0.53984
C         53.88120        38.07814         0.31858
C         55.12607        40.23462         0.36626
C         53.86176        39.44664         0.36233
C         55.09449        41.71888         0.43423
C         53.92627        42.41238         0.13113
C         55.13098        44.60957         0.18993
C         53.90548        43.82602        -0.09061
C         55.23289        46.00669        -0.27967
C         53.98618        46.61750        -0.85635
C         55.29179        48.84938        -0.58485
C         54.01595        48.15382        -0.89857
C         55.22301        50.27513        -0.43957
C         54.04850        50.99895        -0.41134
C         57.56128        24.41978        -0.86541
C         56.29624        25.07422        -0.82802
C         57.51631        27.16346        -0.45648
C         56.31632        26.48464        -0.74502
C         57.40638        28.50817         0.04179
C         56.34297        29.34210        -0.13310
C         57.70206        31.53928         0.05624
C         56.44716        30.77771         0.26119
C         57.74182        32.99099         0.51311
C         56.36164        33.69019         0.58529
C         57.63779        35.90221         0.57439
C         56.35675        35.17636         0.70448
C         57.64445        37.31945         0.96994
C         56.30707        38.05864         1.14613
C         57.67335        40.25124         0.82388
C         56.40608        39.49493         0.60422
C         57.62658        41.71965         1.02583
C         56.31230        42.44443         0.88068
C         57.65478        44.74400         0.85774
C         56.32467        43.95221         0.79127
C         57.69377        45.77399        -0.31639
C         56.43531        46.65048        -0.33557
C         57.70977        48.71970         0.05390
C         56.46699        48.10852        -0.38623
C         58.75249        25.12838        -0.86355
C         59.96738        27.30385        -0.91795
C         58.78475        26.53888        -0.65049
C         60.06433        28.70588        -0.98273
C         59.19735        29.57022        -0.29681
C         59.89436        31.84164        -1.01414
C         58.90749        30.98299        -0.44506
C         59.78030        33.23000        -0.95002
C         58.75203        33.85406        -0.23730
C         59.92688        36.09071        -0.26873
C         58.76301        35.27622         0.04353
C         59.99401        37.41383         0.01571
C         58.91888        38.10643         0.74154
C         60.10772        40.35310         0.83555
C         58.87550        39.59956         0.76917
C         60.11262        41.71594         0.86659
C         58.89348        42.49397         0.90669
C         60.13517        44.63251         0.71646
C         58.89965        43.87227         0.80629
C         60.17576        45.89793         0.24982
C         58.99733        46.60802        -0.36572
C         58.85081        48.00797         0.18247
O         34.37915        27.12560         1.08127
O         46.85566        44.27315        -1.69818
O         50.36777        27.07048        -1.53867
O         55.34787        44.55503         1.70777
O         42.64012        50.63390         1.17920
O         46.94645        28.79096        -0.88181
O         52.43098        41.05636         1.51436
O         53.73132        35.89425        -1.53947
O         53.31128        48.60910        -2.11823
O         46.14364        38.74163        -1.35813
O         31.42392        30.07342        -2.44463
O         43.13363        48.47833        -1.97043
O         41.87322        35.40159         1.66579
O         58.59057        37.55883         2.07709
O         37.06540        20.41112         1.12612
O         45.81906        27.25286         2.14939
O         41.26524        38.97392         1.91578
O         41.85777        44.65482         1.49128
O         25.79724        37.68538        -1.88140
O         41.81311        42.03234         1.70194
O         36.17336        40.27373        -2.35340
O         44.89145        44.32110         1.55259
O         52.36497        23.42516        -1.81923
O         35.11245        23.58094         1.31824
O         56.79404        42.02616         2.21262
O         40.55238        32.35078        -1.88743
O         43.11627        23.02787         2.84350
O         34.41615        44.53571        -1.87597
O         30.22083        29.16997         0.79495
O         35.99433        31.05488        -2.35791
O         55.70784        31.09237         1.49481
O         38.74879        22.62447        -1.18062
O         46.93959        52.68588         0.87684
O         29.42802        33.52839        -2.20970
O         27.39337        40.29341        -1.56642
O         39.26684        27.00216         1.68647
O         31.00677        24.47812        -2.33284
O         51.02758        28.93801         1.50642
O         54.40477        26.90508        -2.21347
O         25.70653        45.18933        -1.49198
O         38.89322        37.59913         1.36901
O         38.93825        43.16472        -1.80890
O         49.43006        44.11655         1.00984
O         40.28607        18.66092        -1.02447
O         36.03315        37.78077        -2.53295
O         49.23048        35.52350        -1.73778
O         29.61319        46.03640         2.36633
O         39.39428        29.56226         1.35279
O         27.29050        47.65296        -1.02812
O         45.47260        23.93809         2.90161
O         56.17943        34.32114         1.91109
O         28.62198        35.49256         0.89185
O         58.50744        28.97862         0.77854
O         44.54298        46.80593         1.05946
O         45.91715        50.90208        -2.29320
O         48.74114        38.78030        -1.83689
O         26.15035        26.78691         1.27449
O         31.11208        50.42844         3.25057
O         55.97716        39.71317        -0.77863
O         37.92608        54.10055         1.81944
O         55.29590        29.31643        -2.25603
H         54.78637        28.69381        -2.82806
O         45.43184        40.23629         1.90483
H         44.79907        40.85049         2.33912
O         44.16264        29.18453        -1.65196
H         44.38411        28.23050        -1.74707
O         43.22221        24.09431        -0.59731
H         43.45736        24.92587        -1.07574
O         24.30721        42.34595        -1.91412
H         24.91808        43.05999        -2.19881
O         37.87224        48.97235         2.09056
H         38.77460        49.30417         2.33012
O         43.47679        18.81687        -0.26314
H         42.73961        18.97808        -0.89311
O         27.47222        44.29683         2.43241
H         28.20185        44.72152         2.94086
O         34.61864        46.13837         2.03045
H         34.13046        46.62863         2.72952
O         59.31071        46.79120        -1.78790
H         60.14582        47.30065        -1.84865
O         42.69681        45.59758        -1.87453
H         42.71131        46.42593        -2.40907
O         33.99092        35.25312        -2.97335
H         34.77003        34.76465        -3.31584
O         27.95863        28.45862         1.61277
H         28.90957        28.48695         1.87336
O         43.91176        20.67576         3.51401
H         43.32930        21.39676         3.85367
O         29.01356        39.03795         1.52420
H         29.49282        39.72210         2.05474
O         24.97868        41.71497         1.63669
H         25.76486        41.43691         2.15214
O         40.09234        49.40200        -1.65816
H         39.82245        48.63013        -2.19900
O         43.72819        37.78492        -1.40595
H         44.49637        38.19144        -1.87568
O         40.90307        41.54440        -1.71563
H         40.33798        42.05591        -2.34446
O         27.49892        27.69810        -1.93844
H         27.61620        26.90950        -2.50877
O         38.10465        27.04669        -1.80534
H         37.42219        27.48515        -2.35745
O         48.03731        37.63710         1.55350
H         47.20604        37.46268         2.06407
O         33.03875        52.92004         0.24899
H         32.22111        52.40724         0.42457
O         38.67725        37.54299        -2.26343
H         38.03200        37.41335        -2.99517
O         39.40760        22.88314         2.03825
H         39.73554        23.57129         2.65736
O         43.43972        25.70819         2.72669
H         43.64716        24.95772         3.33308
O         52.28962        36.86641         1.63024
H         52.27805        37.66093         2.20537
O         43.69712        52.74804        -2.52935
H         44.41263        52.22338        -2.95957
O         51.43832        46.66241        -2.18082
H         52.23163        47.13269        -2.54251
O         40.33831        49.96747         1.93919
H         41.27376        50.07765         2.24260
O         37.59082        50.15668        -1.36862
H         37.64854        51.03510        -1.79831
O         37.71836        41.85885         1.32595
H         37.07256        41.22115         1.69585
O         50.37065        50.49225        -2.49101
H         49.60870        50.00091        -2.86666
O         49.92956        32.89079        -2.07088
H         50.31203        33.70772        -2.48791
O         45.28015        37.59097         1.99130
H         45.21890        38.56141         2.20719
O         33.47787        41.52434         1.36177
H         33.60364        42.43331         1.71154
O         31.58482        26.88663        -2.71604
H         31.14547        26.12422        -3.16467
O         39.69894        19.86146         2.39063
H         39.23531        20.69031         2.64652
O         33.39991        42.27773        -2.20869
H         33.91493        42.87292        -2.79753
O         43.64186        18.00192         3.32564
H         43.70987        18.93636         3.64989
O         44.51062        26.39798        -0.72466
H         45.49243        26.37003        -0.67619
O         57.62179        44.95284        -1.50192
H         58.12129        45.42530        -2.20817
O         53.99234        46.13288        -2.22876
H         54.73377        46.56635        -2.70110
O         56.04673        38.16844         2.56101
H         56.91524        38.11467         3.02311
O         57.70364        45.46816         2.09709
H         56.80784        45.40462         2.50586
O         51.58366        35.03021        -2.37477
H         51.58094        35.92791        -2.76963
O         34.75850        46.94953        -1.53004
H         34.38611        46.28147        -2.15593
O         52.80585        46.30458         1.23609
H         53.47532        45.70528         1.63506
O         46.71804        33.62328         1.94947
H         46.02016        34.12744         2.42046
O         33.62282        39.66416        -2.75813
H         34.46846        39.55695        -3.25256
O         58.27068        32.91053         1.86943
H         57.65545        33.42719         2.44735
O         40.56547        53.44743         2.01878
H         39.72275        53.80949         2.38749
O         48.89966        42.42891        -2.21262
H         48.74011        41.51555        -2.53275
O         49.31750        33.67289         1.45448
H         48.48441        33.76722         1.97937
O         29.13812        38.44821        -2.13089
H         28.41049        39.09283        -2.32575
O         47.31949        33.25208        -1.63828
H         48.12731        33.00654        -2.15820
O         32.08150        49.00327        -0.21352
H         32.77118        49.24276        -0.86840
O         51.52856        48.40078         1.10634
H         50.91112        47.75844         1.51650
O         32.18700        47.82800         3.22921
H         31.53612        47.32202         3.75945
O         30.64481        41.28067         2.03508
H         31.60720        41.07456         2.13336
H         21.94125        26.78724        -0.27408
H         21.96234        29.22359        -0.18699
H         21.96333        31.09053         0.14146
H         21.95636        33.51634         0.21104
H         22.00948        35.44082         0.49864
H         22.04283        37.86554         0.55744
H         21.96904        39.80288         0.30090
H         21.93082        42.20088        -0.07804
H         22.03518        44.22696        -0.35821
H         22.15248        46.68801        -0.16233
H         25.26862        23.36715        -0.55297
H         23.18282        24.63066        -0.34606
H         25.46485        50.00756         0.33580
H         23.39759        48.78678        -0.02101
H         26.96642        22.38048        -0.40633
H         27.08724        50.88704         1.22109
H         29.06636        21.14672        -0.39287
H         28.98167        51.69900         2.63050
H         32.91230        19.04647        -1.15251
H         30.76916        20.20586        -1.07705
H         33.85839        53.92242         2.96039
H         32.25683        52.44581         4.20455
H         34.63279        18.09808        -0.96412
H         34.31889        55.07532         0.58642
H         36.73823        16.91076        -0.74993
H         36.33038        56.33835        -0.04196
H         40.57726        14.75110         0.20626
H         38.51147        15.87888        -0.45490
H         40.08189        58.49082        -0.97026
H         38.01024        57.27948        -0.40206
H         42.97786        14.79285         0.83132
H         42.56053        58.51228        -1.20357
H         44.86753        15.91533         1.86552
H         44.72690        57.34136        -1.10093
H         48.52227        18.14954         0.84287
H         46.47660        16.95352         1.37753
H         48.52952        55.32897        -0.37048
H         46.39330        56.45524        -0.48024
H         50.13589        19.04950         0.67136
H         50.25316        54.25977        -0.07182
H         52.18694        20.21274         0.07504
H         52.35653        53.05290         0.00440
H         55.95683        22.42933        -0.34389
H         53.92302        21.20179         0.08649
H         56.16294        50.83043        -0.30985
H         54.12093        52.08767        -0.27404
H         57.60455        23.32748        -0.97557
H         57.70195        49.77651         0.35746
H         59.70071        24.58968        -1.00623
H         60.81166        26.73336        -1.33849
H         60.86209        29.13469        -1.60895
H         60.78239        31.39216        -1.47934
H         60.55924        33.83257        -1.43770
H         60.77188        35.62452        -0.79298
H         60.85556        38.00219        -0.33253
H         61.06074        39.80648         0.83546
H         61.07845        42.23885         0.87676
H         61.07173        44.17044         1.06322
H         61.13677        46.43714         0.22896
H         59.75914        48.50046         0.56320
