         486
 CSIRO Nanostructure Databank - Neutral Graphene Oxide Data Set
C          8.41023        18.88514         0.09281
C          8.38552        20.25419        -0.06805
C          7.15219        21.00636        -0.08289
C          8.33201        23.16143         0.11088
C          7.11998        22.37055        -0.02871
C          8.29922        24.57408         0.17292
C         10.87336        14.66173         0.42610
C         10.83014        16.01557         0.62507
C          9.60537        16.77106         0.48968
C         10.97464        18.74034        -0.11367
C          9.61885        18.12060         0.23373
C         10.98268        20.30233        -0.10935
C          9.64255        21.03555        -0.12912
C         10.78240        23.20794         0.46358
C          9.56339        22.47071         0.14167
C         10.77319        24.68595         0.33743
C          9.48340        25.37846         0.20622
C         10.77335        27.50174        -0.27380
C          9.46854        26.74987        -0.01404
C         10.67567        29.03798        -0.35470
C         13.33742        10.32180        -0.26213
C         13.28902        11.78370        -0.11624
C         12.08900        12.52780         0.27079
C         13.35208        14.61954         0.65650
C         12.11607        13.91172         0.46428
C         13.36141        16.02092         0.89599
C         12.04127        16.71898         1.23618
C         13.42447        18.85847         0.55282
C         12.03917        18.27036         0.99038
C         13.35618        20.37636         0.72129
C         12.18476        21.00411         0.43563
C         13.33223        23.23244         0.65321
C         12.06328        22.46337         0.70240
C         13.22819        24.65970         0.25123
C         11.93755        25.38193         0.39876
C         13.20705        27.56989         0.53263
C         11.86475        26.87784         0.66670
C         13.27959        28.86760         0.89166
C         11.46382        29.93983         0.31030
C         13.08908        31.89807         0.14501
C         11.85101        31.29258        -0.07097
C         13.29040        33.22092        -0.40160
C         15.80582         7.55680        -0.70180
C         14.63312         8.23042        -0.68559
C         15.78980        10.41051        -0.34053
C         14.53631         9.67234        -0.42950
C         15.84814        11.72148         0.01983
C         14.60951        12.51412         0.06879
C         15.88793        14.57914         0.53689
C         14.61822        13.80465         0.85603
C         15.84114        16.02311         0.89179
C         14.55986        16.71580         1.07845
C         15.85422        18.96781         1.17489
C         14.53047        18.20525         1.42741
C         15.86726        20.46193         1.21761
C         14.50269        21.17339         1.37920
C         15.77084        23.45213         1.04430
C         14.51676        22.61262         0.86652
C         15.79129        24.78872         0.29843
C         14.47926        25.42076         0.01276
C         15.70668        27.67043        -0.07115
C         14.41911        26.91268        -0.02239
C         15.72511        29.11117         0.34931
C         14.45078        29.74710         0.81129
C         15.65038        31.93769         0.46627
C         14.33695        31.25727         0.68417
C         15.74288        33.17348        -0.09800
C         14.52382        33.84253        -0.52969
C         15.83698        35.83759        -1.14207
C         14.64013        35.18037        -1.06492
C         18.40861         7.61095        -0.67368
C         17.09566         8.25828        -0.31934
C         18.17622        10.46298        -1.27393
C         17.00383         9.68301        -0.79900
C         18.13433        11.92151        -0.94525
C         17.18279        12.43461         0.14455
C         18.34275        14.69440        -0.08047
C         17.00957        13.95236         0.08998
C         18.08513        16.16610        -0.27079
C         17.06266        16.85172         0.54066
C         18.07896        19.09504        -0.20188
C         16.90482        18.31217         0.33431
C         18.11321        20.55102         0.07782
C         17.06024        21.19298         0.66441
C         18.32384        23.39248         0.47423
C         17.08148        22.67230         0.86676
C         18.23561        24.76866        -0.15674
C         16.94149        25.48485         0.10582
C         18.15089        27.50480         0.77379
C         17.05906        26.96173        -0.22678
C         18.21456        29.02052         0.99496
C         16.98229        29.81630         0.69319
C         18.15595        32.01580         1.13259
C         16.86747        31.27073         1.05102
C         18.18349        33.43487         0.62872
C         17.10926        33.76692        -0.41031
C         18.27123        35.93514        -0.77572
C         17.08560        35.24175        -0.73825
C         20.81754         7.63565        -1.00258
C         19.52528         8.29748        -1.05860
C         20.79075        10.34406        -2.02858
C         19.47687         9.71161        -1.56418
C         20.91422        11.82370        -2.11281
C         18.99313        12.76818        -1.55051
C         20.59768        14.85201        -1.37211
C         19.19608        14.17458        -1.25107
C         20.57746        16.17631        -0.75789
C         19.35622        16.95095        -0.70441
C         20.58904        19.03975        -0.47742
C         19.36152        18.38578        -0.42584
C         20.57498        20.50532        -0.73523
C         19.24546        21.28493        -0.63477
C         20.62571        23.42356        -0.65608
C         19.57232        22.59514         0.11484
C         20.67286        24.85192        -0.17377
C         19.51239        25.54987         0.05800
C         20.69311        27.69130         0.37954
C         19.50960        26.95098         0.37688
C         20.79263        29.07291         0.80561
C         19.51021        29.76207         1.14693
C         20.76157        32.01988         1.20096
C         19.47016        31.27389         1.24851
C         20.81876        33.57319         1.06816
C         19.48663        34.17481         0.54790
C         20.72863        35.96014        -0.64776
C         19.53219        35.36502        -0.34910
C         23.28173         7.56744        -1.09984
C         22.01024         8.24319        -1.26214
C         23.20467        10.47680        -1.28438
C         22.12473         9.58815        -1.96066
C         23.29350        11.93323        -1.74956
C         21.93610        12.60999        -1.65295
C         23.13679        14.75461        -0.87381
C         21.95549        14.15238        -1.69010
C         23.08327        16.08809        -0.48454
C         21.78859        16.81540        -0.15924
C         23.06042        18.97380        -0.35419
C         21.81321        18.30656        -0.45426
C         23.06379        20.45693        -0.13023
C         21.89159        21.23450        -0.67893
C         23.14635        23.38701        -0.45627
C         21.93759        22.70284        -0.52689
C         23.17378        24.80728        -0.43679
C         21.92029        25.56245        -0.39617
C         23.22244        27.73774        -0.00203
C         21.92265        27.08754        -0.17663
C         23.26687        29.03482         0.48776
C         22.01608        29.73594         0.82944
C         23.31242        31.97138         0.87654
C         22.04460        31.21357         1.10657
C         23.28431        33.40624         0.44097
C         22.04407        34.07892         0.32121
C         23.19202        36.00122        -0.68486
C         22.00561        35.35801        -0.31268
C         25.75441         7.52009        -1.08729
C         24.44507         8.26260        -1.00561
C         25.71587        10.50114        -0.94714
C         24.44128         9.74448        -0.86345
C         25.69181        11.85266        -1.23437
C         24.47466        12.67066        -1.14346
C         25.52439        14.71201        -0.06935
C         24.39892        14.00887        -0.72585
C         25.49421        16.09833         0.06759
C         24.28422        16.83935        -0.16274
C         25.59022        19.01001        -0.00233
C         24.27303        18.24813        -0.10476
C         25.50786        20.52199         0.14096
C         24.38208        21.16911        -0.23351
C         25.68581        23.35347        -0.50128
C         24.40714        22.58993        -0.75515
C         25.69051        24.74982        -0.95502
C         24.36946        25.54848        -0.82240
C         25.74422        27.63689        -0.25714
C         24.40536        27.09400        -0.74094
C         25.72314        29.05816         0.10310
C         24.56754        29.71606         0.49573
C         25.85707        31.94433         0.53867
C         24.59420        31.18530         0.74851
C         25.73495        33.29813        -0.08319
C         24.47456        34.05816         0.06683
C         25.66210        36.07522        -0.79316
C         24.46841        35.40355        -0.46054
C         28.16751         7.53469        -0.44258
C         26.84983         8.26110        -0.33068
C         28.01880        10.35690         0.12688
C         27.02867         9.73861        -0.83776
C         27.96168        11.72097         0.64089
C         26.70123        12.58009         0.85098
C         27.94114        14.69082         0.55147
C         26.75273        14.01914         0.38432
C         28.00568        16.20583         0.47183
C         26.63997        16.82183         0.70323
C         27.90679        19.07872         1.15397
C         26.61637        18.31333         0.87817
C         27.92023        20.58730         1.00972
C         26.63712        21.37466         0.71363
C         28.10359        23.29827        -0.09704
C         26.83039        22.69377        -0.03198
C         28.21581        24.68486        -0.64957
C         26.99294        25.54852        -1.06843
C         28.21524        27.65145        -0.26232
C         26.93378        26.95246        -0.43049
C         28.23954        29.02156        -0.09915
C         26.97457        29.82591        -0.28559
C         28.29030        31.94409        -0.20550
C         27.16617        31.16857         0.43323
C         28.23835        33.24203        -0.56794
C         26.95601        33.98455        -0.59035
C         28.27290        36.12877        -0.95912
C         27.00144        35.49169        -0.42181
C         30.61955         7.50061        -0.08566
C         29.30595         8.14466        -0.05743
C         30.52304        10.26521        -0.10202
C         29.24774         9.55775         0.48549
C         30.50327        11.78345         0.01278
C         29.27640        12.48409         0.53513
C         30.48792        14.56452         1.09721
C         29.27411        13.98881         0.35563
C         30.42614        16.04244         1.44052
C         29.09124        16.83380         1.41289
C         30.38476        19.02914         1.05777
C         29.21291        18.33649         1.09834
C         30.43227        20.52810         1.34381
C         29.21991        21.27642         0.81578
C         30.64594        23.21596         0.11056
C         29.28109        22.57657         0.34902
C         30.58652        24.73202         0.39998
C         29.47961        25.42257        -0.37115
C         30.66616        27.54199        -0.11554
C         29.46783        26.90251        -0.25967
C         30.76670        28.99515         0.03016
C         29.49807        29.76348         0.14247
C         30.69652        31.71437        -0.99512
C         29.62396        31.27630        -0.01532
C         30.69659        33.17932        -1.32010
C         29.42064        33.94086        -1.13971
C         30.73578        36.02603        -1.39645
C         29.43642        35.42510        -1.12637
C         31.77751         8.14989         0.16121
C         33.05556        10.36922         0.09620
C         31.80564         9.62069         0.51169
C         33.08752        11.73952         0.16816
C         31.80618        12.51927         0.13451
C         32.97807        14.19811         1.36962
C         31.77859        13.83636         0.81870
C         32.99526        16.30268         1.60620
C         31.69324        16.81854         1.22818
C         32.98131        18.99385         1.02435
C         31.68429        18.32409         0.92296
C         33.03748        20.45967         1.38267
C         31.76303        21.16537         1.04503
C         33.13322        23.33609         0.97376
C         31.80340        22.60896         0.89998
C         33.21227        24.68552         0.32328
C         31.93030        25.38385         0.06644
C         33.21875        27.61405         0.43622
C         31.93524        26.86334         0.20683
C         33.25903        29.14665         0.29563
C         32.05785        29.52702        -0.58125
C         33.26956        31.72842        -1.10346
C         31.98994        30.97614        -1.02295
C         33.18676        33.16649        -1.31687
C         32.00093        33.87802        -1.37551
C         31.90885        35.32089        -1.48722
C         34.31524        12.48440         0.29291
C         35.40724        14.63249         0.93829
C         34.27974        13.75808         0.87270
C         35.40936        16.05483         1.05284
C         34.17692        16.84789         1.14308
C         35.44488        18.96180         0.76309
C         34.16302        18.27340         0.90636
C         35.49515        20.32372         0.71718
C         34.23744        21.13999         0.68373
C         35.63675        23.23137         0.50134
C         34.45533        22.58104         1.20213
C         35.75513        24.74057         0.68904
C         34.46470        25.48012         0.42874
C         35.80445        27.57372         0.34604
C         34.47804        26.83279         0.34294
C         35.68544        28.96143        -0.27061
C         34.53229        29.68532        -0.32946
C         34.45093        31.06011        -0.83408
C         36.61231        16.74555         0.81053
C         37.81977        18.78958         0.16091
C         36.67232        18.16193         0.61216
C         37.74978        20.22972        -0.29547
C         36.82862        21.03082         0.62379
C         37.95904        23.13316        -0.28189
C         36.74252        22.49150         0.21664
C         37.99082        24.49447        -0.49214
C         36.89978        25.36122        -0.10154
C         36.88249        26.71039        -0.29803
C         39.06661        20.93637        -0.48820
C         39.11853        22.28620        -0.54190
O         17.31629        31.78421         2.32053
O         18.10500        24.58931        -1.57907
O         29.81588        33.44054        -2.47071
O         16.49896        29.81573        -0.69787
O         22.55370         9.33495        -3.25668
O         22.84738        31.67100         2.24224
O         25.79327        12.18237         1.54770
O         18.49804        34.42523         1.62218
O         19.74761        12.36258        -2.65266
O         30.12432        31.83035         1.23254
O         19.07364        14.41569         1.08008
O         18.77950        29.24483         2.32121
O         31.11012        12.40672        -1.15745
O         21.79804        26.52126        -1.51526
O         36.02932        24.87625         2.08689
O         25.37688        31.76323         1.89533
O         11.32411        18.26351        -1.34186
O         26.04876        33.36778        -1.54595
O         32.25461        23.32352         2.13526
O         29.27116        24.84988        -1.70181
O         28.85048        11.99836         1.82458
O         16.87347        16.40517         1.89394
O         11.85041        16.48612         2.60526
O         21.32970        20.79018        -1.96064
O         31.68121        17.32254        -0.15559
O         11.21350        22.77962         1.85038
O         18.03153        23.20530         1.88981
O         16.30629        19.64839         2.37496
O         12.14570        29.47777         1.46301
O         33.02632        15.15109         2.39487
O         26.22722        17.44593         1.96343
O         32.38755        27.22811         1.57978
O         19.85439         9.78537        -2.97345
O         22.84121        20.15974         1.25971
O         17.16314         9.95411        -2.22518
O         23.42359        10.25777         0.11244
O         16.93121        18.71298        -1.05433
O         27.80978        19.93575         2.34577
O         20.14253        31.68077         2.48650
O         31.05629        30.97137        -2.18961
O         14.44453        30.60770         1.99853
O         14.88222        27.51435        -1.27112
O         30.36788        15.02259         2.47760
O         13.77230        24.82105        -1.13033
O         19.59915        14.87224        -2.45968
O         18.21165        16.60101        -1.59705
O         10.49731        20.85530        -1.34443
O         32.65106        24.79607        -1.04578
O         24.84822        25.02353        -2.11912
O         13.95700        12.56371        -1.21945
O         26.44384         8.29936         1.04947
H         27.21048         8.57003         1.60176
O         34.81130        22.59293         2.58685
H         35.23492        23.49485         2.74267
O         17.53050        27.14295        -1.55674
H         17.71814        26.23235        -1.93091
O         17.58124        33.07069        -1.60896
H         16.89176        33.14567        -2.30222
O         32.24520        28.74441        -1.79252
H         31.75267        29.20212        -2.51316
O         36.20008        27.71000         1.74024
H         36.21616        26.78508         2.11145
O         14.17718        18.37342         2.80491
H         14.95405        18.12879         3.35255
O         33.20159        20.54329         2.82287
H         32.31071        20.65301         3.23086
O         30.27098        29.37671         1.34471
H         29.52717        31.49311         1.94264
O         27.64982         9.66591        -2.14802
H         27.76425        10.58595        -2.47324
O         14.64978        13.42511         2.25448
H         14.71048        14.23769         2.80011
O         13.76881        18.52198        -0.77829
H         12.93396        18.50766        -1.34349
O         22.26003        14.51987        -3.06658
H         21.41252        14.47554        -3.56720
O         17.77034        12.17275         1.42838
H         18.40753        12.93429         1.60240
O         37.39226        21.03193         1.95656
H         36.76848        21.53597         2.52999
O         17.77113        26.92592         2.04520
H         18.26006        27.41834         2.74604
O         26.13353        21.82890         1.99951
H         26.20781        21.07568         2.62957
O         27.09408        35.66021         1.04424
H         27.14268        36.62057         1.23708
O         11.40206        26.98137         2.02625
H         11.46974        27.92840         2.29310
O         24.37028        22.36265        -2.20755
H         24.35916        23.25471        -2.63464
O         26.86661        12.44647        -1.66609
H         26.68594        13.35817        -1.97502
O         17.09712         8.34782         1.14131
H         17.13952         7.43809         1.50271
O         11.15940        27.10140        -1.61379
H         10.48017        27.40904        -2.24882
O         20.36967        23.49061        -2.07195
H         19.49517        23.99080        -2.17823
O         33.86866        21.24277        -0.71296
H         34.68466        21.25774        -1.25863
O         26.24854        18.84063        -1.33164
H         25.73144        19.35220        -1.99374
O         26.81934        30.11517        -1.69941
H         26.51819        29.29871        -2.15358
O         27.12817        25.85651        -2.47537
H         28.08179        25.74330        -2.70843
O         30.51637         9.94852        -1.49907
H         30.89694        10.72002        -1.98103
O         15.66889        23.86368         2.43380
H         16.58667        24.00251         2.76686
O         37.06894        20.21023        -1.59647
H         37.66731        19.78207        -2.24421
O         21.65660        16.70278         1.29757
H         22.22370        17.39069         1.71066
O         23.60976        11.90541        -3.17134
H         23.29733        12.75651        -3.55773
O         28.35936        16.60138        -0.89318
H         27.73548        17.29817        -1.21022
O         29.50977        14.21235        -1.05511
H         29.38091        15.17124        -1.25772
O         26.13638         7.32923        -2.45364
H         26.48255         8.18137        -2.80294
O         33.13243        29.74472         1.58725
H         32.55616        29.15618         2.12808
O         30.24893        24.95803         1.77551
H         30.98346        24.61690         2.34222
O         11.65306        18.88348         2.18763
H         11.62446        18.12819         2.85839
O         24.30572        27.58901        -2.10278
H         24.62263        26.86585        -2.69492
O         30.36900        20.59776         2.82111
H         29.43767        20.34427         3.06427
O         28.58897        16.81724         2.75369
H         28.92438        16.00620         3.20075
O         21.02484        34.09068         2.39474
H         20.53690        33.49792         3.01395
O         20.23749        22.20361         1.33145
H         19.58486        22.29002         2.06926
O         30.98122        22.91113        -1.25581
H         30.45977        23.50857        -1.84442
O         18.73261        21.49845        -1.94822
H         19.47492        21.84252        -2.50327
O         14.18380        21.23407         2.77879
H         14.12218        20.30262         3.10340
O         29.27860         9.42057         1.92927
H         29.14745        10.31949         2.32489
O         27.63804        30.84878         1.76459
H         26.87754        30.99717         2.38272
O         31.82295         9.76354         1.95146
H         31.05598         9.25191         2.30979
H          7.45292        18.34592         0.17997
H          6.20878        20.44255        -0.12932
H          6.15581        22.89827        -0.04738
H          7.32245        25.07756         0.09963
H          9.96880        14.13086         0.09164
H          8.64545        16.23461         0.56696
H          8.50687        27.25250        -0.20979
H         10.17675        29.39691        -1.27159
H         12.39321         9.75753        -0.22847
H         11.11889        12.00589         0.27631
H         11.12741        31.86686        -0.67305
H         12.39859        33.76006        -0.75797
H         15.81771         6.47518        -0.90763
H         13.69383         7.69359        -0.89151
H         15.86032        36.87597        -1.50635
H         13.71845        35.69135        -1.37968
H         18.53523         6.56196        -0.35522
H         18.27946        36.97029        -1.15280
H         20.82694         6.60952        -0.59984
H         20.74087        36.88706        -1.24093
H         23.30349         6.46614        -1.10301
H         23.14067        36.99511        -1.15365
H         25.62784         6.50217        -0.63695
H         25.60109        37.09480        -1.20548
H         28.17942         6.50511        -0.83094
H         28.30211        37.23077        -0.99427
H         30.63970         6.42816        -0.33417
H         30.77450        37.12289        -1.48381
H         32.73118         7.60064         0.14459
H         34.00475         9.81069         0.05776
H         34.13681        33.72394        -1.35498
H         32.84484        35.88020        -1.64139
H         35.27105        12.01416         0.01850
H         36.37695        14.17799         0.67400
H         36.60932        29.39860        -0.68595
H         35.39884        31.61577        -0.92769
H         37.53604        16.16352         0.66437
H         38.73709        18.20304        -0.01039
H         38.88667        24.95398        -0.93954
H         37.73497        27.20865        -0.78805
H         39.97134        20.33678        -0.67504
H         40.07355        22.78828        -0.76190
